/*---------------------------------------------------------------------------*\
  =========                 |
  \\      /  F ield         | OpenFOAM: The Open Source CFD Toolbox
   \\    /   O peration     | Website:  https://openfoam.org
    \\  /    A nd           | Version:  7
     \\/     M anipulation  |
\*---------------------------------------------------------------------------*/
Build  : 7-7dc73e32f723
Exec   : blockMesh
Date   : Nov 24 2020
Time   : 21:01:16
Host   : "DESKTOP-VSJ4QNK"
PID    : 14192
I/O    : uncollated
Case   : /home/anoldfriend/OpenFOAM/anoldfriend-7/applications/test/incompressible/poiseuilleFlowDrivenByGravity
nProcs : 1
sigFpe : Enabling floating point exception trapping (FOAM_SIGFPE).
fileModificationChecking : Monitoring run-time modified files using timeStampMaster (fileModificationSkew 10)
allowSystemOperations : Allowing user-supplied system call operations

// * * * * * * * * * * * * * * * * * * * * * * * * * * * * * * * * * * * * * //
Create time

Creating block mesh from
    "/home/anoldfriend/OpenFOAM/anoldfriend-7/applications/test/incompressible/poiseuilleFlowDrivenByGravity/system/blockMeshDict"
Creating block edges
No non-planar block faces defined
Creating topology blocks
Creating topology patches

Creating block mesh topology

Check topology

	Basic statistics
		Number of internal faces : 0
		Number of boundary faces : 6
		Number of defined boundary faces : 6
		Number of undefined boundary faces : 0
	Checking patch -> block consistency

Creating block offsets
Creating merge list .

Creating polyMesh from blockMesh
Creating patches
Creating cells
Creating points with scale 0.1
    Block 0 cell size :
        i : 0.005 .. 0.005
        j : 0.00172925 .. 0.000626133
        k : 0.01

Detected cyclic patches; ordering boundary faces

Writing polyMesh
----------------
Mesh Information
----------------
  boundingBox: (0 0 0) (1 0.1 0.01)
  nPoints: 16482
  nCells: 8000
  nFaces: 32240
  nInternalFaces: 15760
----------------
Patches
----------------
  patch 0 (start: 15760 size: 40) name: velocity-inlet
  patch 1 (start: 15800 size: 40) name: velocity-outlet
  patch 2 (start: 15840 size: 400) name: fixedWalls
  patch 3 (start: 16240 size: 16000) name: frontAndBack

End

/*---------------------------------------------------------------------------*\
  =========                 |
  \\      /  F ield         | OpenFOAM: The Open Source CFD Toolbox
   \\    /   O peration     | Website:  https://openfoam.org
    \\  /    A nd           | Version:  7
     \\/     M anipulation  |
\*---------------------------------------------------------------------------*/
Build  : 7-7dc73e32f723
Exec   : checkMesh
Date   : Nov 24 2020
Time   : 21:01:16
Host   : "DESKTOP-VSJ4QNK"
PID    : 14194
I/O    : uncollated
Case   : /home/anoldfriend/OpenFOAM/anoldfriend-7/applications/test/incompressible/poiseuilleFlowDrivenByGravity
nProcs : 1
sigFpe : Enabling floating point exception trapping (FOAM_SIGFPE).
fileModificationChecking : Monitoring run-time modified files using timeStampMaster (fileModificationSkew 10)
allowSystemOperations : Allowing user-supplied system call operations

// * * * * * * * * * * * * * * * * * * * * * * * * * * * * * * * * * * * * * //
Create time

Create polyMesh for time = 0

Time = 0

Mesh stats
    points:           16482
    internal points:  0
    faces:            32240
    internal faces:   15760
    cells:            8000
    faces per cell:   6
    boundary patches: 4
    point zones:      0
    face zones:       0
    cell zones:       0

Overall number of cells of each type:
    hexahedra:     8000
    prisms:        0
    wedges:        0
    pyramids:      0
    tet wedges:    0
    tetrahedra:    0
    polyhedra:     0

Checking topology...
    Boundary definition OK.
    Cell to face addressing OK.
    Point usage OK.
    Upper triangular ordering OK.
    Face vertices OK.
    Number of regions: 1 (OK).

Checking patch topology for multiply connected surfaces...
    Patch               Faces    Points   Surface topology                  
    velocity-inlet      40       82       ok (non-closed singly connected)  
    velocity-outlet     40       82       ok (non-closed singly connected)  
    fixedWalls          400      804      ok (non-closed singly connected)  
    frontAndBack        16000    16482    ok (non-closed singly connected)  

Checking geometry...
    Overall domain bounding box (0 0 0) (1 0.1 0.01)
    Mesh has 2 geometric (non-empty/wedge) directions (1 1 0)
    Mesh has 2 solution (non-empty) directions (1 1 0)
    All edges aligned with or perpendicular to non-empty directions.
    Boundary openness (-1.45751e-18 3.96808e-19 -9.32442e-17) OK.
    Max cell openness = 1.26391e-16 OK.
    Max aspect ratio = 7.98552 OK.
    Minimum face area = 3.13067e-06. Maximum face area = 6.26133e-05.  Face area magnitudes OK.
    Min volume = 3.13067e-08. Max volume = 3.13067e-07.  Total volume = 0.001.  Cell volumes OK.
    Mesh non-orthogonality Max: 0 average: 0
    Non-orthogonality check OK.
    Face pyramids OK.
    Max skewness = 2.22045e-13 OK.
    Coupled point location match (average 0) OK.

Mesh OK.

End

/*---------------------------------------------------------------------------*\
  =========                 |
  \\      /  F ield         | OpenFOAM: The Open Source CFD Toolbox
   \\    /   O peration     | Website:  https://openfoam.org
    \\  /    A nd           | Version:  7
     \\/     M anipulation  |
\*---------------------------------------------------------------------------*/
Build  : 7-7dc73e32f723
Exec   : /home/anoldfriend/OpenFOAM/anoldfriend-7/platforms/linux64GccDPInt32Opt/bin/icoGravityFoam
Date   : Nov 24 2020
Time   : 21:01:17
Host   : "DESKTOP-VSJ4QNK"
PID    : 14196
I/O    : uncollated
Case   : /home/anoldfriend/OpenFOAM/anoldfriend-7/applications/test/incompressible/poiseuilleFlowDrivenByGravity
nProcs : 1
sigFpe : Enabling floating point exception trapping (FOAM_SIGFPE).
fileModificationChecking : Monitoring run-time modified files using timeStampMaster (fileModificationSkew 10)
allowSystemOperations : Allowing user-supplied system call operations

// * * * * * * * * * * * * * * * * * * * * * * * * * * * * * * * * * * * * * //
Create time

Create mesh for time = 0

Reading transportProperties

Reading field p

Reading field U


Reading g
Reading/calculating face flux field phi


Starting time loop

Time = 0.001

Courant Number mean: 0 max: 0
smoothSolver:  Solving for Ux, Initial residual = 1, Final residual = 7.90619e-07, No Iterations 33
smoothSolver:  Solving for Uy, Initial residual = 0, Final residual = 0, No Iterations 0
DICPCG:  Solving for p, Initial residual = 1, Final residual = 0.0495696, No Iterations 59
time step continuity errors : sum local = 1.51649e-13, global = -1.91964e-22, cumulative = -1.91964e-22
DICPCG:  Solving for p, Initial residual = 0.69581, Final residual = 9.37348e-07, No Iterations 153
time step continuity errors : sum local = 3.80151e-18, global = 8.3822e-22, cumulative = 6.46256e-22
ExecutionTime = 0.2 s  ClockTime = 0 s

Time = 0.002

Courant Number mean: 0.00187634 max: 0.002
smoothSolver:  Solving for Ux, Initial residual = 0.484931, Final residual = 9.32292e-07, No Iterations 30
smoothSolver:  Solving for Uy, Initial residual = 0.240036, Final residual = 7.63475e-07, No Iterations 27
DICPCG:  Solving for p, Initial residual = 0.784242, Final residual = 0.0342686, No Iterations 59
time step continuity errors : sum local = 1.95117e-13, global = -3.83331e-21, cumulative = -3.18706e-21
DICPCG:  Solving for p, Initial residual = 0.698482, Final residual = 8.88619e-07, No Iterations 153
time step continuity errors : sum local = 5.73163e-18, global = 2.78237e-21, cumulative = -4.0469e-22
ExecutionTime = 0.26 s  ClockTime = 0 s

Time = 0.003

Courant Number mean: 0.00368836 max: 0.00399999
smoothSolver:  Solving for Ux, Initial residual = 0.308103, Final residual = 7.39167e-07, No Iterations 29
smoothSolver:  Solving for Uy, Initial residual = 0.156964, Final residual = 7.30654e-07, No Iterations 28
DICPCG:  Solving for p, Initial residual = 0.719195, Final residual = 0.0310464, No Iterations 58
time step continuity errors : sum local = 2.00226e-13, global = -3.31285e-22, cumulative = -7.35975e-22
DICPCG:  Solving for p, Initial residual = 0.709013, Final residual = 8.51115e-07, No Iterations 153
time step continuity errors : sum local = 5.6034e-18, global = -5.21651e-21, cumulative = -5.95249e-21
ExecutionTime = 0.33 s  ClockTime = 0 s

Time = 0.004

Courant Number mean: 0.00545261 max: 0.00599996
smoothSolver:  Solving for Ux, Initial residual = 0.220865, Final residual = 9.82548e-07, No Iterations 27
smoothSolver:  Solving for Uy, Initial residual = 0.109468, Final residual = 8.32639e-07, No Iterations 28
DICPCG:  Solving for p, Initial residual = 0.826923, Final residual = 0.0345214, No Iterations 59
time step continuity errors : sum local = 4.20164e-13, global = -1.58256e-21, cumulative = -7.53504e-21
DICPCG:  Solving for p, Initial residual = 0.705714, Final residual = 9.04757e-07, No Iterations 153
time step continuity errors : sum local = 1.26206e-17, global = 9.07846e-21, cumulative = 1.54342e-21
ExecutionTime = 0.39 s  ClockTime = 0 s

Time = 0.005

Courant Number mean: 0.00717719 max: 0.00799984
smoothSolver:  Solving for Ux, Initial residual = 0.169953, Final residual = 9.99876e-07, No Iterations 26
smoothSolver:  Solving for Uy, Initial residual = 0.113235, Final residual = 7.25539e-07, No Iterations 28
DICPCG:  Solving for p, Initial residual = 0.730994, Final residual = 0.0335806, No Iterations 58
time step continuity errors : sum local = 4.95325e-13, global = -4.63899e-22, cumulative = 1.07952e-21
DICPCG:  Solving for p, Initial residual = 0.714561, Final residual = 8.24947e-07, No Iterations 153
time step continuity errors : sum local = 1.25222e-17, global = 5.60703e-21, cumulative = 6.68655e-21
ExecutionTime = 0.45 s  ClockTime = 0 s

Time = 0.006

Courant Number mean: 0.00886709 max: 0.00999956
smoothSolver:  Solving for Ux, Initial residual = 0.136832, Final residual = 7.53547e-07, No Iterations 26
smoothSolver:  Solving for Uy, Initial residual = 0.0950556, Final residual = 7.79996e-07, No Iterations 28
DICPCG:  Solving for p, Initial residual = 0.726759, Final residual = 0.0361453, No Iterations 39
time step continuity errors : sum local = 5.02872e-13, global = 2.62947e-22, cumulative = 6.9495e-21
DICPCG:  Solving for p, Initial residual = 0.732594, Final residual = 7.92834e-07, No Iterations 153
time step continuity errors : sum local = 1.05243e-17, global = -8.6928e-21, cumulative = -1.74331e-21
ExecutionTime = 0.51 s  ClockTime = 0 s

Time = 0.007

Courant Number mean: 0.0105258 max: 0.0119989
smoothSolver:  Solving for Ux, Initial residual = 0.113919, Final residual = 8.51665e-07, No Iterations 25
smoothSolver:  Solving for Uy, Initial residual = 0.0735225, Final residual = 8.15503e-07, No Iterations 28
DICPCG:  Solving for p, Initial residual = 0.807285, Final residual = 0.0398836, No Iterations 58
time step continuity errors : sum local = 7.86351e-13, global = -5.75073e-22, cumulative = -2.31838e-21
DICPCG:  Solving for p, Initial residual = 0.720481, Final residual = 8.7123e-07, No Iterations 153
time step continuity errors : sum local = 1.80057e-17, global = 2.97851e-21, cumulative = 6.60123e-22
ExecutionTime = 0.57 s  ClockTime = 0 s

Time = 0.008

Courant Number mean: 0.0121559 max: 0.0139978
smoothSolver:  Solving for Ux, Initial residual = 0.0971461, Final residual = 9.9414e-07, No Iterations 24
smoothSolver:  Solving for Uy, Initial residual = 0.0743682, Final residual = 7.17171e-07, No Iterations 28
DICPCG:  Solving for p, Initial residual = 0.770248, Final residual = 0.0360155, No Iterations 58
time step continuity errors : sum local = 9.47851e-13, global = -4.03365e-21, cumulative = -3.37353e-21
DICPCG:  Solving for p, Initial residual = 0.719383, Final residual = 8.21348e-07, No Iterations 153
time step continuity errors : sum local = 2.17692e-17, global = 2.01987e-20, cumulative = 1.68252e-20
ExecutionTime = 0.64 s  ClockTime = 0 s

Time = 0.009

Courant Number mean: 0.0137596 max: 0.0159957
smoothSolver:  Solving for Ux, Initial residual = 0.0844005, Final residual = 8.29431e-07, No Iterations 24
smoothSolver:  Solving for Uy, Initial residual = 0.0761405, Final residual = 7.07534e-07, No Iterations 28
DICPCG:  Solving for p, Initial residual = 0.720559, Final residual = 0.0316325, No Iterations 58
time step continuity errors : sum local = 8.3068e-13, global = -6.83081e-21, cumulative = 9.99439e-21
DICPCG:  Solving for p, Initial residual = 0.732416, Final residual = 7.92113e-07, No Iterations 153
time step continuity errors : sum local = 1.75452e-17, global = 1.15514e-20, cumulative = 2.15458e-20
ExecutionTime = 0.7 s  ClockTime = 0 s

Time = 0.01

Courant Number mean: 0.0153383 max: 0.0179923
smoothSolver:  Solving for Ux, Initial residual = 0.0743815, Final residual = 7.05377e-07, No Iterations 24
smoothSolver:  Solving for Uy, Initial residual = 0.0676977, Final residual = 7.42931e-07, No Iterations 28
DICPCG:  Solving for p, Initial residual = 0.75734, Final residual = 0.0375771, No Iterations 59
time step continuity errors : sum local = 1.07098e-12, global = -5.26887e-21, cumulative = 1.62769e-20
DICPCG:  Solving for p, Initial residual = 0.727458, Final residual = 7.71178e-07, No Iterations 153
time step continuity errors : sum local = 1.81936e-17, global = 6.32002e-21, cumulative = 2.25969e-20
ExecutionTime = 0.76 s  ClockTime = 0 s

Time = 0.011

Courant Number mean: 0.0168936 max: 0.0199872
smoothSolver:  Solving for Ux, Initial residual = 0.0663557, Final residual = 8.74937e-07, No Iterations 23
smoothSolver:  Solving for Uy, Initial residual = 0.0649143, Final residual = 6.99733e-07, No Iterations 28
DICPCG:  Solving for p, Initial residual = 0.797882, Final residual = 0.0369714, No Iterations 60
time step continuity errors : sum local = 1.59502e-12, global = 1.70474e-21, cumulative = 2.43017e-20
DICPCG:  Solving for p, Initial residual = 0.709628, Final residual = 8.08452e-07, No Iterations 153
time step continuity errors : sum local = 2.88711e-17, global = 4.59471e-21, cumulative = 2.88964e-20
ExecutionTime = 0.83 s  ClockTime = 0 s

Time = 0.012

Courant Number mean: 0.0184266 max: 0.0219797
smoothSolver:  Solving for Ux, Initial residual = 0.0597807, Final residual = 7.66476e-07, No Iterations 23
smoothSolver:  Solving for Uy, Initial residual = 0.0736329, Final residual = 9.24087e-07, No Iterations 27
DICPCG:  Solving for p, Initial residual = 0.714697, Final residual = 0.0344365, No Iterations 94
time step continuity errors : sum local = 1.14276e-12, global = -1.16863e-20, cumulative = 1.72101e-20
DICPCG:  Solving for p, Initial residual = 0.628253, Final residual = 6.56855e-07, No Iterations 153
time step continuity errors : sum local = 2.34672e-17, global = 4.56016e-21, cumulative = 2.17703e-20
ExecutionTime = 0.89 s  ClockTime = 0 s

Time = 0.013

Courant Number mean: 0.0199383 max: 0.0239693
smoothSolver:  Solving for Ux, Initial residual = 0.0542971, Final residual = 9.74098e-07, No Iterations 22
smoothSolver:  Solving for Uy, Initial residual = 0.0583531, Final residual = 9.78646e-07, No Iterations 27
DICPCG:  Solving for p, Initial residual = 0.829488, Final residual = 0.0386665, No Iterations 58
time step continuity errors : sum local = 1.76781e-12, global = 1.71005e-20, cumulative = 3.88708e-20
DICPCG:  Solving for p, Initial residual = 0.708145, Final residual = 9.00702e-07, No Iterations 153
time step continuity errors : sum local = 4.22413e-17, global = 1.90564e-20, cumulative = 5.79272e-20
ExecutionTime = 0.96 s  ClockTime = 1 s

Time = 0.014

Courant Number mean: 0.0214296 max: 0.0259553
smoothSolver:  Solving for Ux, Initial residual = 0.049664, Final residual = 8.7085e-07, No Iterations 22
smoothSolver:  Solving for Uy, Initial residual = 0.061228, Final residual = 9.01945e-07, No Iterations 27
DICPCG:  Solving for p, Initial residual = 0.706863, Final residual = 0.0311587, No Iterations 59
time step continuity errors : sum local = 1.47329e-12, global = -2.21348e-21, cumulative = 5.57137e-20
DICPCG:  Solving for p, Initial residual = 0.721658, Final residual = 6.707e-07, No Iterations 153
time step continuity errors : sum local = 2.48641e-17, global = 2.44485e-20, cumulative = 8.01622e-20
ExecutionTime = 1.02 s  ClockTime = 1 s

Time = 0.015

Courant Number mean: 0.0229013 max: 0.0279369
smoothSolver:  Solving for Ux, Initial residual = 0.0457109, Final residual = 7.85255e-07, No Iterations 22
smoothSolver:  Solving for Uy, Initial residual = 0.0655723, Final residual = 9.7045e-07, No Iterations 27
DICPCG:  Solving for p, Initial residual = 0.786407, Final residual = 0.0380398, No Iterations 81
time step continuity errors : sum local = 1.58737e-12, global = -7.24578e-21, cumulative = 7.29164e-20
DICPCG:  Solving for p, Initial residual = 0.661608, Final residual = 7.0444e-07, No Iterations 153
time step continuity errors : sum local = 3.26596e-17, global = -2.22675e-20, cumulative = 5.06488e-20
ExecutionTime = 1.09 s  ClockTime = 1 s

Time = 0.016

Courant Number mean: 0.024354 max: 0.0299135
smoothSolver:  Solving for Ux, Initial residual = 0.0422881, Final residual = 7.12938e-07, No Iterations 22
smoothSolver:  Solving for Uy, Initial residual = 0.0510257, Final residual = 9.13387e-07, No Iterations 27
DICPCG:  Solving for p, Initial residual = 0.732588, Final residual = 0.0328913, No Iterations 57
time step continuity errors : sum local = 1.33255e-12, global = 2.39989e-21, cumulative = 5.30487e-20
DICPCG:  Solving for p, Initial residual = 0.727615, Final residual = 7.0744e-07, No Iterations 153
time step continuity errors : sum local = 2.59132e-17, global = -3.71262e-21, cumulative = 4.93361e-20
ExecutionTime = 1.15 s  ClockTime = 1 s

Time = 0.017

Courant Number mean: 0.0257885 max: 0.0318843
smoothSolver:  Solving for Ux, Initial residual = 0.039299, Final residual = 9.34871e-07, No Iterations 21
smoothSolver:  Solving for Uy, Initial residual = 0.053526, Final residual = 8.97056e-07, No Iterations 27
DICPCG:  Solving for p, Initial residual = 0.83702, Final residual = 0.0383016, No Iterations 58
time step continuity errors : sum local = 2.26532e-12, global = 2.80544e-20, cumulative = 7.73905e-20
DICPCG:  Solving for p, Initial residual = 0.707418, Final residual = 8.07002e-07, No Iterations 153
time step continuity errors : sum local = 4.90676e-17, global = -1.03786e-21, cumulative = 7.63527e-20
ExecutionTime = 1.21 s  ClockTime = 1 s

Time = 0.018

Courant Number mean: 0.0272053 max: 0.0338486
smoothSolver:  Solving for Ux, Initial residual = 0.0366748, Final residual = 8.58698e-07, No Iterations 21
smoothSolver:  Solving for Uy, Initial residual = 0.0559907, Final residual = 8.25981e-07, No Iterations 27
DICPCG:  Solving for p, Initial residual = 0.706921, Final residual = 0.0353054, No Iterations 58
time step continuity errors : sum local = 2.11635e-12, global = 1.72711e-21, cumulative = 7.80798e-20
DICPCG:  Solving for p, Initial residual = 0.720584, Final residual = 6.37674e-07, No Iterations 153
time step continuity errors : sum local = 3.11221e-17, global = 7.3882e-21, cumulative = 8.5468e-20
ExecutionTime = 1.27 s  ClockTime = 1 s

Time = 0.019

Courant Number mean: 0.0286049 max: 0.0358058
smoothSolver:  Solving for Ux, Initial residual = 0.0343492, Final residual = 7.92761e-07, No Iterations 21
smoothSolver:  Solving for Uy, Initial residual = 0.0627192, Final residual = 8.95478e-07, No Iterations 27
DICPCG:  Solving for p, Initial residual = 0.794674, Final residual = 0.0371577, No Iterations 61
time step continuity errors : sum local = 2.58345e-12, global = 1.71936e-21, cumulative = 8.71874e-20
DICPCG:  Solving for p, Initial residual = 0.697043, Final residual = 7.45334e-07, No Iterations 153
time step continuity errors : sum local = 4.12858e-17, global = 9.21434e-21, cumulative = 9.64017e-20
ExecutionTime = 1.33 s  ClockTime = 1 s

Time = 0.02

Courant Number mean: 0.0299878 max: 0.0377551
smoothSolver:  Solving for Ux, Initial residual = 0.0322686, Final residual = 7.35096e-07, No Iterations 21
smoothSolver:  Solving for Uy, Initial residual = 0.060511, Final residual = 8.49434e-07, No Iterations 27
DICPCG:  Solving for p, Initial residual = 0.727179, Final residual = 0.0346528, No Iterations 82
time step continuity errors : sum local = 1.96567e-12, global = 1.46456e-20, cumulative = 1.11047e-19
DICPCG:  Solving for p, Initial residual = 0.631322, Final residual = 6.34152e-07, No Iterations 153
time step continuity errors : sum local = 3.86649e-17, global = -6.17601e-21, cumulative = 1.04871e-19
ExecutionTime = 1.4 s  ClockTime = 1 s

Time = 0.021

Courant Number mean: 0.0313545 max: 0.0396959
smoothSolver:  Solving for Ux, Initial residual = 0.030403, Final residual = 9.82206e-07, No Iterations 20
smoothSolver:  Solving for Uy, Initial residual = 0.0535037, Final residual = 8.34205e-07, No Iterations 27
DICPCG:  Solving for p, Initial residual = 0.839292, Final residual = 0.0366177, No Iterations 58
time step continuity errors : sum local = 2.87207e-12, global = -7.3899e-21, cumulative = 9.74813e-20
DICPCG:  Solving for p, Initial residual = 0.691682, Final residual = 7.95802e-07, No Iterations 153
time step continuity errors : sum local = 6.35583e-17, global = -1.86328e-20, cumulative = 7.88485e-20
ExecutionTime = 1.46 s  ClockTime = 1 s

Time = 0.022

Courant Number mean: 0.0327053 max: 0.0416275
smoothSolver:  Solving for Ux, Initial residual = 0.0287237, Final residual = 9.17707e-07, No Iterations 20
smoothSolver:  Solving for Uy, Initial residual = 0.0542926, Final residual = 7.8082e-07, No Iterations 27
DICPCG:  Solving for p, Initial residual = 0.710677, Final residual = 0.033107, No Iterations 59
time step continuity errors : sum local = 2.7269e-12, global = -1.32769e-20, cumulative = 6.55716e-20
DICPCG:  Solving for p, Initial residual = 0.706367, Final residual = 6.35335e-07, No Iterations 153
time step continuity errors : sum local = 4.16928e-17, global = 2.65232e-20, cumulative = 9.20948e-20
ExecutionTime = 1.52 s  ClockTime = 1 s

Time = 0.023

Courant Number mean: 0.0340406 max: 0.0435494
smoothSolver:  Solving for Ux, Initial residual = 0.0272045, Final residual = 8.59799e-07, No Iterations 20
smoothSolver:  Solving for Uy, Initial residual = 0.0623084, Final residual = 8.40748e-07, No Iterations 27
DICPCG:  Solving for p, Initial residual = 0.808429, Final residual = 0.0376514, No Iterations 61
time step continuity errors : sum local = 3.63021e-12, global = 1.57829e-20, cumulative = 1.07878e-19
DICPCG:  Solving for p, Initial residual = 0.690917, Final residual = 6.88958e-07, No Iterations 153
time step continuity errors : sum local = 5.33896e-17, global = 3.58289e-20, cumulative = 1.43707e-19
ExecutionTime = 1.58 s  ClockTime = 1 s

Time = 0.024

Courant Number mean: 0.0353608 max: 0.045461
smoothSolver:  Solving for Ux, Initial residual = 0.0258239, Final residual = 8.08223e-07, No Iterations 20
smoothSolver:  Solving for Uy, Initial residual = 0.063126, Final residual = 8.17824e-07, No Iterations 27
DICPCG:  Solving for p, Initial residual = 0.732731, Final residual = 0.0349178, No Iterations 82
time step continuity errors : sum local = 2.74208e-12, global = -1.49123e-21, cumulative = 1.42215e-19
DICPCG:  Solving for p, Initial residual = 0.623993, Final residual = 6.23306e-07, No Iterations 153
time step continuity errors : sum local = 5.20262e-17, global = 4.77287e-20, cumulative = 1.89944e-19
ExecutionTime = 1.66 s  ClockTime = 1 s

Time = 0.025

Courant Number mean: 0.0366661 max: 0.0473619
smoothSolver:  Solving for Ux, Initial residual = 0.0245641, Final residual = 7.61953e-07, No Iterations 20
smoothSolver:  Solving for Uy, Initial residual = 0.0547477, Final residual = 8.14997e-07, No Iterations 27
DICPCG:  Solving for p, Initial residual = 0.815001, Final residual = 0.0376856, No Iterations 56
time step continuity errors : sum local = 2.97999e-12, global = 3.25297e-20, cumulative = 2.22474e-19
DICPCG:  Solving for p, Initial residual = 0.697533, Final residual = 7.10625e-07, No Iterations 153
time step continuity errors : sum local = 5.20763e-17, global = -1.16375e-20, cumulative = 2.10836e-19
ExecutionTime = 1.72 s  ClockTime = 1 s

Time = 0.026

Courant Number mean: 0.037957 max: 0.0492516
smoothSolver:  Solving for Ux, Initial residual = 0.02341, Final residual = 7.20455e-07, No Iterations 20
smoothSolver:  Solving for Uy, Initial residual = 0.0534913, Final residual = 7.91537e-07, No Iterations 27
DICPCG:  Solving for p, Initial residual = 0.751397, Final residual = 0.0331678, No Iterations 60
time step continuity errors : sum local = 2.8997e-12, global = -1.69043e-20, cumulative = 1.93932e-19
DICPCG:  Solving for p, Initial residual = 0.692237, Final residual = 6.38326e-07, No Iterations 153
time step continuity errors : sum local = 4.42438e-17, global = -2.14539e-21, cumulative = 1.91787e-19
ExecutionTime = 1.78 s  ClockTime = 1 s

Time = 0.027

Courant Number mean: 0.0392337 max: 0.0511295
smoothSolver:  Solving for Ux, Initial residual = 0.0223492, Final residual = 9.80341e-07, No Iterations 19
smoothSolver:  Solving for Uy, Initial residual = 0.0602529, Final residual = 7.58703e-07, No Iterations 27
DICPCG:  Solving for p, Initial residual = 0.840306, Final residual = 0.0408517, No Iterations 59
time step continuity errors : sum local = 5.11585e-12, global = -4.55244e-21, cumulative = 1.87234e-19
DICPCG:  Solving for p, Initial residual = 0.679195, Final residual = 7.34041e-07, No Iterations 153
time step continuity errors : sum local = 7.99427e-17, global = -2.74811e-20, cumulative = 1.59753e-19
ExecutionTime = 1.84 s  ClockTime = 1 s

Time = 0.028

Courant Number mean: 0.0404965 max: 0.0529955
smoothSolver:  Solving for Ux, Initial residual = 0.0213709, Final residual = 9.31078e-07, No Iterations 19
smoothSolver:  Solving for Uy, Initial residual = 0.0639843, Final residual = 7.22499e-07, No Iterations 27
DICPCG:  Solving for p, Initial residual = 0.717733, Final residual = 0.0332588, No Iterations 92
time step continuity errors : sum local = 3.45354e-12, global = -4.23028e-20, cumulative = 1.1745e-19
DICPCG:  Solving for p, Initial residual = 0.603761, Final residual = 6.05528e-07, No Iterations 153
time step continuity errors : sum local = 6.61089e-17, global = -7.72379e-21, cumulative = 1.09727e-19
ExecutionTime = 1.91 s  ClockTime = 1 s

Time = 0.029

Courant Number mean: 0.0417456 max: 0.054849
smoothSolver:  Solving for Ux, Initial residual = 0.020466, Final residual = 8.85677e-07, No Iterations 19
smoothSolver:  Solving for Uy, Initial residual = 0.0577225, Final residual = 7.90937e-07, No Iterations 27
DICPCG:  Solving for p, Initial residual = 0.820142, Final residual = 0.0379327, No Iterations 56
time step continuity errors : sum local = 4.01229e-12, global = 5.85088e-20, cumulative = 1.68235e-19
DICPCG:  Solving for p, Initial residual = 0.683302, Final residual = 7.21803e-07, No Iterations 153
time step continuity errors : sum local = 7.32713e-17, global = -8.05676e-20, cumulative = 8.76677e-20
ExecutionTime = 1.97 s  ClockTime = 2 s

Time = 0.03

Courant Number mean: 0.0429813 max: 0.0566898
smoothSolver:  Solving for Ux, Initial residual = 0.0196257, Final residual = 8.44013e-07, No Iterations 19
smoothSolver:  Solving for Uy, Initial residual = 0.054259, Final residual = 7.6983e-07, No Iterations 27
DICPCG:  Solving for p, Initial residual = 0.748418, Final residual = 0.031928, No Iterations 59
time step continuity errors : sum local = 3.71622e-12, global = 1.60721e-20, cumulative = 1.0374e-19
DICPCG:  Solving for p, Initial residual = 0.684947, Final residual = 6.16564e-07, No Iterations 153
time step continuity errors : sum local = 5.75356e-17, global = -3.60957e-20, cumulative = 6.76442e-20
ExecutionTime = 2.03 s  ClockTime = 2 s

Time = 0.031

Courant Number mean: 0.0442039 max: 0.0585175
smoothSolver:  Solving for Ux, Initial residual = 0.018841, Final residual = 8.05956e-07, No Iterations 19
smoothSolver:  Solving for Uy, Initial residual = 0.0620851, Final residual = 7.60667e-07, No Iterations 27
DICPCG:  Solving for p, Initial residual = 0.808152, Final residual = 0.0362012, No Iterations 79
time step continuity errors : sum local = 3.67429e-12, global = 3.61017e-21, cumulative = 7.12543e-20
DICPCG:  Solving for p, Initial residual = 0.625349, Final residual = 6.00932e-07, No Iterations 153
time step continuity errors : sum local = 6.78233e-17, global = -3.70905e-21, cumulative = 6.75453e-20
ExecutionTime = 2.1 s  ClockTime = 2 s

Time = 0.032

Courant Number mean: 0.0454134 max: 0.0603321
smoothSolver:  Solving for Ux, Initial residual = 0.0181096, Final residual = 7.70037e-07, No Iterations 19
smoothSolver:  Solving for Uy, Initial residual = 0.0552492, Final residual = 7.402e-07, No Iterations 27
DICPCG:  Solving for p, Initial residual = 0.765593, Final residual = 0.037961, No Iterations 55
time step continuity errors : sum local = 3.90872e-12, global = 1.89618e-20, cumulative = 8.65071e-20
DICPCG:  Solving for p, Initial residual = 0.684037, Final residual = 5.88869e-07, No Iterations 153
time step continuity errors : sum local = 5.61133e-17, global = 4.39316e-20, cumulative = 1.30439e-19
ExecutionTime = 2.16 s  ClockTime = 2 s

Time = 0.033

Courant Number mean: 0.0466102 max: 0.0621331
smoothSolver:  Solving for Ux, Initial residual = 0.0174264, Final residual = 7.37561e-07, No Iterations 19
smoothSolver:  Solving for Uy, Initial residual = 0.0579451, Final residual = 7.37544e-07, No Iterations 27
DICPCG:  Solving for p, Initial residual = 0.830055, Final residual = 0.0408622, No Iterations 33
time step continuity errors : sum local = 4.52433e-12, global = 1.02613e-20, cumulative = 1.407e-19
DICPCG:  Solving for p, Initial residual = 0.668538, Final residual = 6.07244e-07, No Iterations 153
time step continuity errors : sum local = 6.42016e-17, global = -5.46942e-20, cumulative = 8.60057e-20
ExecutionTime = 2.21 s  ClockTime = 2 s

Time = 0.034

Courant Number mean: 0.0477945 max: 0.0639204
smoothSolver:  Solving for Ux, Initial residual = 0.0167868, Final residual = 7.07046e-07, No Iterations 19
smoothSolver:  Solving for Uy, Initial residual = 0.057163, Final residual = 7.05597e-07, No Iterations 27
DICPCG:  Solving for p, Initial residual = 0.782367, Final residual = 0.0364054, No Iterations 62
time step continuity errors : sum local = 4.65959e-12, global = 1.28492e-21, cumulative = 8.72906e-20
DICPCG:  Solving for p, Initial residual = 0.675689, Final residual = 5.98423e-07, No Iterations 153
time step continuity errors : sum local = 6.17214e-17, global = -4.35069e-20, cumulative = 4.37837e-20
ExecutionTime = 2.27 s  ClockTime = 2 s

Time = 0.035

Courant Number mean: 0.0489665 max: 0.0656939
smoothSolver:  Solving for Ux, Initial residual = 0.0161843, Final residual = 9.76001e-07, No Iterations 18
smoothSolver:  Solving for Uy, Initial residual = 0.0665909, Final residual = 6.88995e-07, No Iterations 27
DICPCG:  Solving for p, Initial residual = 0.855466, Final residual = 0.0415022, No Iterations 59
time step continuity errors : sum local = 7.1001e-12, global = 4.05279e-20, cumulative = 8.43116e-20
DICPCG:  Solving for p, Initial residual = 0.659834, Final residual = 6.45285e-07, No Iterations 153
time step continuity errors : sum local = 9.97125e-17, global = 9.51339e-21, cumulative = 9.3825e-20
ExecutionTime = 2.34 s  ClockTime = 2 s

Time = 0.036

Courant Number mean: 0.0501262 max: 0.0674533
smoothSolver:  Solving for Ux, Initial residual = 0.0156175, Final residual = 9.38278e-07, No Iterations 18
smoothSolver:  Solving for Uy, Initial residual = 0.0667914, Final residual = 9.65139e-07, No Iterations 26
DICPCG:  Solving for p, Initial residual = 0.744303, Final residual = 0.0357597, No Iterations 94
time step continuity errors : sum local = 5.23993e-12, global = -3.0074e-20, cumulative = 6.3751e-20
DICPCG:  Solving for p, Initial residual = 0.59746, Final residual = 5.39072e-07, No Iterations 153
time step continuity errors : sum local = 8.31261e-17, global = 2.28741e-20, cumulative = 8.66251e-20
ExecutionTime = 2.39 s  ClockTime = 2 s

Time = 0.037

Courant Number mean: 0.051274 max: 0.0691987
smoothSolver:  Solving for Ux, Initial residual = 0.0150839, Final residual = 9.02834e-07, No Iterations 18
smoothSolver:  Solving for Uy, Initial residual = 0.0645707, Final residual = 7.3343e-07, No Iterations 27
DICPCG:  Solving for p, Initial residual = 0.840221, Final residual = 0.0411806, No Iterations 37
time step continuity errors : sum local = 6.21534e-12, global = -4.68599e-20, cumulative = 3.97651e-20
DICPCG:  Solving for p, Initial residual = 0.662355, Final residual = 6.24017e-07, No Iterations 153
time step continuity errors : sum local = 9.37579e-17, global = 3.54798e-20, cumulative = 7.52449e-20
ExecutionTime = 2.46 s  ClockTime = 2 s

Time = 0.038

Courant Number mean: 0.05241 max: 0.0709298
smoothSolver:  Solving for Ux, Initial residual = 0.0145809, Final residual = 8.69689e-07, No Iterations 18
smoothSolver:  Solving for Uy, Initial residual = 0.0605536, Final residual = 7.21279e-07, No Iterations 27
DICPCG:  Solving for p, Initial residual = 0.781278, Final residual = 0.0367957, No Iterations 32
time step continuity errors : sum local = 6.05557e-12, global = -3.68263e-20, cumulative = 3.84186e-20
DICPCG:  Solving for p, Initial residual = 0.662832, Final residual = 5.43699e-07, No Iterations 153
time step continuity errors : sum local = 7.75923e-17, global = -2.96794e-20, cumulative = 8.73918e-21
ExecutionTime = 2.52 s  ClockTime = 2 s

Time = 0.039

Courant Number mean: 0.0535343 max: 0.0726465
smoothSolver:  Solving for Ux, Initial residual = 0.0141058, Final residual = 8.38538e-07, No Iterations 18
smoothSolver:  Solving for Uy, Initial residual = 0.069097, Final residual = 7.26593e-07, No Iterations 27
DICPCG:  Solving for p, Initial residual = 0.836184, Final residual = 0.0372314, No Iterations 60
time step continuity errors : sum local = 7.01549e-12, global = -1.45719e-20, cumulative = -5.83273e-21
DICPCG:  Solving for p, Initial residual = 0.648347, Final residual = 5.74575e-07, No Iterations 153
time step continuity errors : sum local = 8.91268e-17, global = -2.62552e-20, cumulative = -3.20879e-20
ExecutionTime = 2.58 s  ClockTime = 2 s

Time = 0.04

Courant Number mean: 0.0546471 max: 0.074349
smoothSolver:  Solving for Ux, Initial residual = 0.0136566, Final residual = 8.09555e-07, No Iterations 18
smoothSolver:  Solving for Uy, Initial residual = 0.074202, Final residual = 7.06908e-07, No Iterations 27
DICPCG:  Solving for p, Initial residual = 0.781668, Final residual = 0.039002, No Iterations 81
time step continuity errors : sum local = 6.23755e-12, global = 1.08556e-20, cumulative = -2.12323e-20
DICPCG:  Solving for p, Initial residual = 0.597932, Final residual = 9.96903e-07, No Iterations 152
time step continuity errors : sum local = 1.70319e-16, global = 5.27888e-20, cumulative = 3.15565e-20
ExecutionTime = 2.64 s  ClockTime = 2 s

Time = 0.041

Courant Number mean: 0.0557486 max: 0.0760369
smoothSolver:  Solving for Ux, Initial residual = 0.0132311, Final residual = 7.82206e-07, No Iterations 18
smoothSolver:  Solving for Uy, Initial residual = 0.0670867, Final residual = 7.0352e-07, No Iterations 27
DICPCG:  Solving for p, Initial residual = 0.84488, Final residual = 0.0409645, No Iterations 44
time step continuity errors : sum local = 6.67749e-12, global = -2.83654e-20, cumulative = 3.19107e-21
DICPCG:  Solving for p, Initial residual = 0.652315, Final residual = 5.4672e-07, No Iterations 153
time step continuity errors : sum local = 8.63549e-17, global = -1.13055e-21, cumulative = 2.06052e-21
ExecutionTime = 2.7 s  ClockTime = 2 s

Time = 0.042

Courant Number mean: 0.0568389 max: 0.0777105
smoothSolver:  Solving for Ux, Initial residual = 0.0128275, Final residual = 7.56401e-07, No Iterations 18
smoothSolver:  Solving for Uy, Initial residual = 0.0672993, Final residual = 9.85243e-07, No Iterations 26
DICPCG:  Solving for p, Initial residual = 0.805393, Final residual = 0.0390574, No Iterations 58
time step continuity errors : sum local = 7.14672e-12, global = 6.85597e-21, cumulative = 8.91649e-21
DICPCG:  Solving for p, Initial residual = 0.655785, Final residual = 9.42277e-07, No Iterations 152
time step continuity errors : sum local = 1.4432e-16, global = 6.50546e-20, cumulative = 7.39711e-20
ExecutionTime = 2.76 s  ClockTime = 2 s

Time = 0.043

Courant Number mean: 0.0579182 max: 0.0793695
smoothSolver:  Solving for Ux, Initial residual = 0.0124443, Final residual = 7.32289e-07, No Iterations 18
smoothSolver:  Solving for Uy, Initial residual = 0.0759183, Final residual = 9.73732e-07, No Iterations 26
DICPCG:  Solving for p, Initial residual = 0.844781, Final residual = 0.0349008, No Iterations 79
time step continuity errors : sum local = 5.76115e-12, global = 3.98418e-20, cumulative = 1.13813e-19
DICPCG:  Solving for p, Initial residual = 0.597865, Final residual = 9.22244e-07, No Iterations 152
time step continuity errors : sum local = 1.66924e-16, global = -5.2757e-20, cumulative = 6.10559e-20
ExecutionTime = 2.83 s  ClockTime = 2 s

Time = 0.044

Courant Number mean: 0.0589866 max: 0.0810141
smoothSolver:  Solving for Ux, Initial residual = 0.0120799, Final residual = 7.09171e-07, No Iterations 18
smoothSolver:  Solving for Uy, Initial residual = 0.0670351, Final residual = 9.55815e-07, No Iterations 26
DICPCG:  Solving for p, Initial residual = 0.819648, Final residual = 0.0391997, No Iterations 42
time step continuity errors : sum local = 6.50365e-12, global = 4.88191e-20, cumulative = 1.09875e-19
DICPCG:  Solving for p, Initial residual = 0.650197, Final residual = 9.39518e-07, No Iterations 152
time step continuity errors : sum local = 1.49962e-16, global = -3.38473e-20, cumulative = 7.60277e-20
ExecutionTime = 2.88 s  ClockTime = 2 s

Time = 0.045

Courant Number mean: 0.0600443 max: 0.0826442
smoothSolver:  Solving for Ux, Initial residual = 0.011733, Final residual = 9.89235e-07, No Iterations 17
smoothSolver:  Solving for Uy, Initial residual = 0.0725384, Final residual = 9.60451e-07, No Iterations 26
DICPCG:  Solving for p, Initial residual = 0.877275, Final residual = 0.0437331, No Iterations 35
time step continuity errors : sum local = 9.78237e-12, global = 4.74768e-20, cumulative = 1.23504e-19
DICPCG:  Solving for p, Initial residual = 0.647183, Final residual = 5.69987e-07, No Iterations 153
time step continuity errors : sum local = 1.29601e-16, global = 3.29308e-20, cumulative = 1.56435e-19
ExecutionTime = 2.94 s  ClockTime = 3 s

Time = 0.046

Courant Number mean: 0.0610912 max: 0.0842598
smoothSolver:  Solving for Ux, Initial residual = 0.0114025, Final residual = 9.59984e-07, No Iterations 17
smoothSolver:  Solving for Uy, Initial residual = 0.0717593, Final residual = 9.39481e-07, No Iterations 26
DICPCG:  Solving for p, Initial residual = 0.789651, Final residual = 0.0384513, No Iterations 57
time step continuity errors : sum local = 9.5898e-12, global = 2.12597e-20, cumulative = 1.77695e-19
DICPCG:  Solving for p, Initial residual = 0.65205, Final residual = 8.76486e-07, No Iterations 152
time step continuity errors : sum local = 1.80908e-16, global = -5.5035e-20, cumulative = 1.2266e-19
ExecutionTime = 3 s  ClockTime = 3 s

Time = 0.047

Courant Number mean: 0.0621277 max: 0.085861
smoothSolver:  Solving for Ux, Initial residual = 0.0110871, Final residual = 9.31932e-07, No Iterations 17
smoothSolver:  Solving for Uy, Initial residual = 0.083647, Final residual = 6.91331e-07, No Iterations 27
DICPCG:  Solving for p, Initial residual = 0.850542, Final residual = 0.0380572, No Iterations 78
time step continuity errors : sum local = 8.64411e-12, global = 3.30299e-20, cumulative = 1.5569e-19
DICPCG:  Solving for p, Initial residual = 0.595133, Final residual = 8.97657e-07, No Iterations 152
time step continuity errors : sum local = 2.2689e-16, global = -3.42413e-20, cumulative = 1.21449e-19
ExecutionTime = 3.06 s  ClockTime = 3 s

Time = 0.048

Courant Number mean: 0.0631539 max: 0.0874477
smoothSolver:  Solving for Ux, Initial residual = 0.0107859, Final residual = 9.05185e-07, No Iterations 17
smoothSolver:  Solving for Uy, Initial residual = 0.0732157, Final residual = 6.9497e-07, No Iterations 27
DICPCG:  Solving for p, Initial residual = 0.815794, Final residual = 0.0391564, No Iterations 46
time step continuity errors : sum local = 8.90006e-12, global = -2.33152e-20, cumulative = 9.81334e-20
DICPCG:  Solving for p, Initial residual = 0.648665, Final residual = 8.56794e-07, No Iterations 152
time step continuity errors : sum local = 1.87165e-16, global = 3.10907e-20, cumulative = 1.29224e-19
ExecutionTime = 3.12 s  ClockTime = 3 s

Time = 0.049

Courant Number mean: 0.0641698 max: 0.0890201
smoothSolver:  Solving for Ux, Initial residual = 0.0104979, Final residual = 8.79516e-07, No Iterations 17
smoothSolver:  Solving for Uy, Initial residual = 0.0792672, Final residual = 6.99152e-07, No Iterations 27
DICPCG:  Solving for p, Initial residual = 0.865702, Final residual = 0.0401156, No Iterations 28
time step continuity errors : sum local = 9.75427e-12, global = 5.59324e-21, cumulative = 1.34817e-19
DICPCG:  Solving for p, Initial residual = 0.63692, Final residual = 8.62448e-07, No Iterations 152
time step continuity errors : sum local = 2.04265e-16, global = 8.03302e-21, cumulative = 1.4285e-19
ExecutionTime = 3.18 s  ClockTime = 3 s

Time = 0.05

Courant Number mean: 0.0651755 max: 0.0905783
smoothSolver:  Solving for Ux, Initial residual = 0.0102224, Final residual = 8.55324e-07, No Iterations 17
smoothSolver:  Solving for Uy, Initial residual = 0.0796683, Final residual = 9.84366e-07, No Iterations 26
DICPCG:  Solving for p, Initial residual = 0.824007, Final residual = 0.0363497, No Iterations 58
time step continuity errors : sum local = 9.98722e-12, global = -1.48e-20, cumulative = 1.2805e-19
DICPCG:  Solving for p, Initial residual = 0.638061, Final residual = 8.40999e-07, No Iterations 152
time step continuity errors : sum local = 1.93773e-16, global = 1.63947e-20, cumulative = 1.44445e-19
ExecutionTime = 3.24 s  ClockTime = 3 s

Time = 0.051

Courant Number mean: 0.0661712 max: 0.0921221
smoothSolver:  Solving for Ux, Initial residual = 0.00995842, Final residual = 8.32116e-07, No Iterations 17
smoothSolver:  Solving for Uy, Initial residual = 0.0889524, Final residual = 9.91635e-07, No Iterations 26
DICPCG:  Solving for p, Initial residual = 0.859009, Final residual = 0.0358379, No Iterations 78
time step continuity errors : sum local = 8.91359e-12, global = -6.10369e-21, cumulative = 1.38341e-19
DICPCG:  Solving for p, Initial residual = 0.584608, Final residual = 8.0663e-07, No Iterations 152
time step continuity errors : sum local = 2.17588e-16, global = 3.06374e-20, cumulative = 1.68979e-19
ExecutionTime = 3.3 s  ClockTime = 3 s

Time = 0.052

Courant Number mean: 0.0671571 max: 0.0936518
smoothSolver:  Solving for Ux, Initial residual = 0.00970541, Final residual = 8.09848e-07, No Iterations 17
smoothSolver:  Solving for Uy, Initial residual = 0.0822042, Final residual = 9.91158e-07, No Iterations 26
DICPCG:  Solving for p, Initial residual = 0.83917, Final residual = 0.0399956, No Iterations 38
time step continuity errors : sum local = 9.81844e-12, global = 1.47024e-20, cumulative = 1.83681e-19
DICPCG:  Solving for p, Initial residual = 0.638846, Final residual = 8.36984e-07, No Iterations 152
time step continuity errors : sum local = 1.99696e-16, global = 2.6927e-20, cumulative = 2.10608e-19
ExecutionTime = 3.36 s  ClockTime = 3 s

Time = 0.053

Courant Number mean: 0.0681331 max: 0.0951673
smoothSolver:  Solving for Ux, Initial residual = 0.00946267, Final residual = 7.88879e-07, No Iterations 17
smoothSolver:  Solving for Uy, Initial residual = 0.0880538, Final residual = 9.52051e-07, No Iterations 26
DICPCG:  Solving for p, Initial residual = 0.879536, Final residual = 0.0431887, No Iterations 25
time step continuity errors : sum local = 1.11014e-11, global = 4.11729e-20, cumulative = 2.51781e-19
DICPCG:  Solving for p, Initial residual = 0.629071, Final residual = 7.90699e-07, No Iterations 152
time step continuity errors : sum local = 2.02748e-16, global = -4.48262e-21, cumulative = 2.47298e-19
ExecutionTime = 3.41 s  ClockTime = 3 s

Time = 0.054

Courant Number mean: 0.0690995 max: 0.0966688
smoothSolver:  Solving for Ux, Initial residual = 0.0092296, Final residual = 7.68473e-07, No Iterations 17
smoothSolver:  Solving for Uy, Initial residual = 0.0873329, Final residual = 9.55513e-07, No Iterations 26
DICPCG:  Solving for p, Initial residual = 0.847994, Final residual = 0.0378896, No Iterations 42
time step continuity errors : sum local = 1.03618e-11, global = 5.14026e-22, cumulative = 2.47812e-19
DICPCG:  Solving for p, Initial residual = 0.637079, Final residual = 7.51309e-07, No Iterations 152
time step continuity errors : sum local = 1.89643e-16, global = -4.02312e-20, cumulative = 2.07581e-19
ExecutionTime = 3.47 s  ClockTime = 3 s

Time = 0.055

Courant Number mean: 0.0700563 max: 0.0981563
smoothSolver:  Solving for Ux, Initial residual = 0.00900563, Final residual = 7.49161e-07, No Iterations 17
smoothSolver:  Solving for Uy, Initial residual = 0.0929507, Final residual = 9.51956e-07, No Iterations 26
DICPCG:  Solving for p, Initial residual = 0.878699, Final residual = 0.0428513, No Iterations 26
time step continuity errors : sum local = 1.25461e-11, global = -2.9393e-20, cumulative = 1.78188e-19
DICPCG:  Solving for p, Initial residual = 0.619556, Final residual = 7.21572e-07, No Iterations 152
time step continuity errors : sum local = 1.95809e-16, global = -4.36712e-20, cumulative = 1.34517e-19
ExecutionTime = 3.52 s  ClockTime = 3 s

Time = 0.056

Courant Number mean: 0.0710037 max: 0.09963
smoothSolver:  Solving for Ux, Initial residual = 0.00879027, Final residual = 7.30667e-07, No Iterations 17
smoothSolver:  Solving for Uy, Initial residual = 0.097808, Final residual = 9.2917e-07, No Iterations 26
DICPCG:  Solving for p, Initial residual = 0.843991, Final residual = 0.0391755, No Iterations 77
time step continuity errors : sum local = 1.10129e-11, global = -2.38404e-20, cumulative = 1.10677e-19
DICPCG:  Solving for p, Initial residual = 0.592631, Final residual = 6.89387e-07, No Iterations 152
time step continuity errors : sum local = 2.02018e-16, global = 8.24531e-20, cumulative = 1.9313e-19
ExecutionTime = 3.59 s  ClockTime = 3 s

Time = 0.057

Courant Number mean: 0.0719417 max: 0.10109
smoothSolver:  Solving for Ux, Initial residual = 0.00858302, Final residual = 7.1301e-07, No Iterations 17
smoothSolver:  Solving for Uy, Initial residual = 0.0992233, Final residual = 9.50125e-07, No Iterations 26
DICPCG:  Solving for p, Initial residual = 0.887778, Final residual = 0.0435717, No Iterations 22
time step continuity errors : sum local = 1.22114e-11, global = 6.46818e-20, cumulative = 2.57811e-19
DICPCG:  Solving for p, Initial residual = 0.623629, Final residual = 7.35819e-07, No Iterations 152
time step continuity errors : sum local = 2.08519e-16, global = 1.23976e-20, cumulative = 2.70209e-19
ExecutionTime = 3.64 s  ClockTime = 3 s

Time = 0.058

Courant Number mean: 0.0728704 max: 0.102536
smoothSolver:  Solving for Ux, Initial residual = 0.00838345, Final residual = 6.95572e-07, No Iterations 17
smoothSolver:  Solving for Uy, Initial residual = 0.0985007, Final residual = 9.12022e-07, No Iterations 26
DICPCG:  Solving for p, Initial residual = 0.861918, Final residual = 0.0415582, No Iterations 41
time step continuity errors : sum local = 1.25949e-11, global = -2.63953e-20, cumulative = 2.43814e-19
DICPCG:  Solving for p, Initial residual = 0.625641, Final residual = 6.68627e-07, No Iterations 152
time step continuity errors : sum local = 1.90265e-16, global = -2.11792e-20, cumulative = 2.22635e-19
ExecutionTime = 3.7 s  ClockTime = 3 s

Time = 0.059

Courant Number mean: 0.0737899 max: 0.103968
smoothSolver:  Solving for Ux, Initial residual = 0.00819114, Final residual = 9.79074e-07, No Iterations 16
smoothSolver:  Solving for Uy, Initial residual = 0.105574, Final residual = 9.16171e-07, No Iterations 26
DICPCG:  Solving for p, Initial residual = 0.896899, Final residual = 0.0434047, No Iterations 55
time step continuity errors : sum local = 1.69055e-11, global = 3.57212e-20, cumulative = 2.58356e-19
DICPCG:  Solving for p, Initial residual = 0.624574, Final residual = 8.08345e-07, No Iterations 152
time step continuity errors : sum local = 3.01127e-16, global = 4.27994e-20, cumulative = 3.01155e-19
ExecutionTime = 3.76 s  ClockTime = 3 s

Time = 0.06

Courant Number mean: 0.0747004 max: 0.105387
smoothSolver:  Solving for Ux, Initial residual = 0.0080058, Final residual = 9.56818e-07, No Iterations 16
smoothSolver:  Solving for Uy, Initial residual = 0.104567, Final residual = 8.82256e-07, No Iterations 26
DICPCG:  Solving for p, Initial residual = 0.827166, Final residual = 0.0412805, No Iterations 77
time step continuity errors : sum local = 1.50208e-11, global = 5.20008e-20, cumulative = 3.53156e-19
DICPCG:  Solving for p, Initial residual = 0.591758, Final residual = 6.83518e-07, No Iterations 152
time step continuity errors : sum local = 2.56238e-16, global = 1.06963e-19, cumulative = 4.60119e-19
ExecutionTime = 3.82 s  ClockTime = 3 s

Time = 0.061

Courant Number mean: 0.0756019 max: 0.106793
smoothSolver:  Solving for Ux, Initial residual = 0.00782694, Final residual = 9.3484e-07, No Iterations 16
smoothSolver:  Solving for Uy, Initial residual = 0.107223, Final residual = 9.69064e-07, No Iterations 26
DICPCG:  Solving for p, Initial residual = 0.888935, Final residual = 0.0439534, No Iterations 41
time step continuity errors : sum local = 1.6758e-11, global = 3.04783e-20, cumulative = 4.90598e-19
DICPCG:  Solving for p, Initial residual = 0.619453, Final residual = 7.33737e-07, No Iterations 152
time step continuity errors : sum local = 2.78479e-16, global = 6.9024e-21, cumulative = 4.975e-19
ExecutionTime = 3.88 s  ClockTime = 3 s

Time = 0.062

Courant Number mean: 0.0764946 max: 0.108185
smoothSolver:  Solving for Ux, Initial residual = 0.00765425, Final residual = 9.13863e-07, No Iterations 16
smoothSolver:  Solving for Uy, Initial residual = 0.105396, Final residual = 9.50249e-07, No Iterations 26
DICPCG:  Solving for p, Initial residual = 0.85104, Final residual = 0.040584, No Iterations 28
time step continuity errors : sum local = 1.71206e-11, global = -6.7024e-20, cumulative = 4.30476e-19
DICPCG:  Solving for p, Initial residual = 0.620335, Final residual = 9.42779e-07, No Iterations 151
time step continuity errors : sum local = 3.5853e-16, global = -9.37356e-20, cumulative = 3.3674e-19
ExecutionTime = 3.93 s  ClockTime = 4 s

Time = 0.063

Courant Number mean: 0.0773785 max: 0.109564
smoothSolver:  Solving for Ux, Initial residual = 0.00748745, Final residual = 8.93404e-07, No Iterations 16
smoothSolver:  Solving for Uy, Initial residual = 0.115681, Final residual = 9.77901e-07, No Iterations 26
DICPCG:  Solving for p, Initial residual = 0.881742, Final residual = 0.0380937, No Iterations 77
time step continuity errors : sum local = 1.5464e-11, global = -2.81619e-20, cumulative = 3.08578e-19
DICPCG:  Solving for p, Initial residual = 0.578079, Final residual = 6.25752e-07, No Iterations 152
time step continuity errors : sum local = 2.75478e-16, global = -5.04557e-20, cumulative = 2.58123e-19
ExecutionTime = 3.99 s  ClockTime = 4 s

Time = 0.064

Courant Number mean: 0.0782537 max: 0.11093
smoothSolver:  Solving for Ux, Initial residual = 0.00732624, Final residual = 8.73601e-07, No Iterations 16
smoothSolver:  Solving for Uy, Initial residual = 0.109588, Final residual = 9.31356e-07, No Iterations 26
DICPCG:  Solving for p, Initial residual = 0.864042, Final residual = 0.0408513, No Iterations 45
time step continuity errors : sum local = 1.66966e-11, global = 6.90036e-20, cumulative = 3.27126e-19
DICPCG:  Solving for p, Initial residual = 0.620826, Final residual = 6.59862e-07, No Iterations 152
time step continuity errors : sum local = 2.61116e-16, global = -1.96389e-20, cumulative = 3.07488e-19
ExecutionTime = 4.05 s  ClockTime = 4 s

Time = 0.065

Courant Number mean: 0.0791202 max: 0.112283
smoothSolver:  Solving for Ux, Initial residual = 0.00717035, Final residual = 8.54818e-07, No Iterations 16
smoothSolver:  Solving for Uy, Initial residual = 0.116854, Final residual = 9.4906e-07, No Iterations 26
DICPCG:  Solving for p, Initial residual = 0.898317, Final residual = 0.040587, No Iterations 26
time step continuity errors : sum local = 1.78853e-11, global = 6.80597e-20, cumulative = 3.75547e-19
DICPCG:  Solving for p, Initial residual = 0.611888, Final residual = 8.70203e-07, No Iterations 149
time step continuity errors : sum local = 3.72373e-16, global = 2.50839e-20, cumulative = 4.00631e-19
ExecutionTime = 4.11 s  ClockTime = 4 s

Time = 0.066

Courant Number mean: 0.0799783 max: 0.113623
smoothSolver:  Solving for Ux, Initial residual = 0.00701954, Final residual = 8.36614e-07, No Iterations 16
smoothSolver:  Solving for Uy, Initial residual = 0.119523, Final residual = 9.05929e-07, No Iterations 26
DICPCG:  Solving for p, Initial residual = 0.868308, Final residual = 0.0427715, No Iterations 18
time step continuity errors : sum local = 2.0811e-11, global = -2.32984e-20, cumulative = 3.77333e-19
DICPCG:  Solving for p, Initial residual = 0.612698, Final residual = 6.08964e-07, No Iterations 152
time step continuity errors : sum local = 2.6479e-16, global = -2.68977e-20, cumulative = 3.50435e-19
ExecutionTime = 4.17 s  ClockTime = 4 s

Time = 0.067

Courant Number mean: 0.080828 max: 0.11495
smoothSolver:  Solving for Ux, Initial residual = 0.00687356, Final residual = 8.19057e-07, No Iterations 16
smoothSolver:  Solving for Uy, Initial residual = 0.131477, Final residual = 9.17133e-07, No Iterations 26
DICPCG:  Solving for p, Initial residual = 0.889012, Final residual = 0.0338692, No Iterations 77
time step continuity errors : sum local = 1.5624e-11, global = 2.88617e-20, cumulative = 3.79297e-19
DICPCG:  Solving for p, Initial residual = 0.561854, Final residual = 9.65548e-07, No Iterations 151
time step continuity errors : sum local = 4.89176e-16, global = -2.86421e-20, cumulative = 3.50655e-19
ExecutionTime = 4.23 s  ClockTime = 4 s

Time = 0.068

Courant Number mean: 0.0816693 max: 0.116264
smoothSolver:  Solving for Ux, Initial residual = 0.00673219, Final residual = 8.02053e-07, No Iterations 16
smoothSolver:  Solving for Uy, Initial residual = 0.123753, Final residual = 9.04608e-07, No Iterations 26
DICPCG:  Solving for p, Initial residual = 0.880975, Final residual = 0.0398794, No Iterations 39
time step continuity errors : sum local = 1.88715e-11, global = -1.41154e-19, cumulative = 2.095e-19
DICPCG:  Solving for p, Initial residual = 0.612263, Final residual = 9.72004e-07, No Iterations 151
time step continuity errors : sum local = 4.45737e-16, global = -1.94319e-19, cumulative = 1.5181e-20
ExecutionTime = 4.28 s  ClockTime = 4 s

Time = 0.069

Courant Number mean: 0.0825024 max: 0.117566
smoothSolver:  Solving for Ux, Initial residual = 0.00659522, Final residual = 7.8554e-07, No Iterations 16
smoothSolver:  Solving for Uy, Initial residual = 0.132869, Final residual = 9.15386e-07, No Iterations 26
DICPCG:  Solving for p, Initial residual = 0.909848, Final residual = 0.0405824, No Iterations 24
time step continuity errors : sum local = 2.08506e-11, global = -4.81242e-20, cumulative = -3.29432e-20
DICPCG:  Solving for p, Initial residual = 0.605475, Final residual = 9.62655e-07, No Iterations 148
time step continuity errors : sum local = 4.76524e-16, global = -4.5792e-20, cumulative = -7.87352e-20
ExecutionTime = 4.34 s  ClockTime = 4 s

Time = 0.07

Courant Number mean: 0.0833273 max: 0.118855
smoothSolver:  Solving for Ux, Initial residual = 0.00646246, Final residual = 7.69585e-07, No Iterations 16
smoothSolver:  Solving for Uy, Initial residual = 0.136972, Final residual = 8.85222e-07, No Iterations 26
DICPCG:  Solving for p, Initial residual = 0.88475, Final residual = 0.0428371, No Iterations 41
time step continuity errors : sum local = 2.49624e-11, global = -1.31761e-20, cumulative = -9.19112e-20
DICPCG:  Solving for p, Initial residual = 0.607707, Final residual = 7.66416e-07, No Iterations 151
time step continuity errors : sum local = 3.90077e-16, global = -8.82772e-20, cumulative = -1.80188e-19
ExecutionTime = 4.39 s  ClockTime = 4 s

Time = 0.071

Courant Number mean: 0.0841441 max: 0.120132
smoothSolver:  Solving for Ux, Initial residual = 0.00633372, Final residual = 7.54175e-07, No Iterations 16
smoothSolver:  Solving for Uy, Initial residual = 0.156576, Final residual = 9.0163e-07, No Iterations 26
DICPCG:  Solving for p, Initial residual = 0.902089, Final residual = 0.0386371, No Iterations 77
time step continuity errors : sum local = 2.09199e-11, global = -2.53607e-20, cumulative = -2.05549e-19
DICPCG:  Solving for p, Initial residual = 0.563758, Final residual = 9.07429e-07, No Iterations 151
time step continuity errors : sum local = 5.35315e-16, global = 9.06559e-20, cumulative = -1.14893e-19
ExecutionTime = 4.47 s  ClockTime = 4 s

Time = 0.072

Courant Number mean: 0.084953 max: 0.121396
smoothSolver:  Solving for Ux, Initial residual = 0.00620883, Final residual = 7.39001e-07, No Iterations 16
smoothSolver:  Solving for Uy, Initial residual = 0.143258, Final residual = 8.90071e-07, No Iterations 26
DICPCG:  Solving for p, Initial residual = 0.894905, Final residual = 0.0430265, No Iterations 20
time step continuity errors : sum local = 2.3138e-11, global = -3.657e-20, cumulative = -1.51463e-19
DICPCG:  Solving for p, Initial residual = 0.611415, Final residual = 8.56064e-07, No Iterations 151
time step continuity errors : sum local = 4.52116e-16, global = 1.0189e-20, cumulative = -1.41274e-19
ExecutionTime = 4.52 s  ClockTime = 4 s

Time = 0.073

Courant Number mean: 0.0857539 max: 0.122649
smoothSolver:  Solving for Ux, Initial residual = 0.00608761, Final residual = 7.2457e-07, No Iterations 16
smoothSolver:  Solving for Uy, Initial residual = 0.151282, Final residual = 9.03407e-07, No Iterations 26
DICPCG:  Solving for p, Initial residual = 0.917482, Final residual = 0.0443826, No Iterations 37
time step continuity errors : sum local = 2.59711e-11, global = -6.72615e-20, cumulative = -2.08536e-19
DICPCG:  Solving for p, Initial residual = 0.606251, Final residual = 9.65892e-07, No Iterations 150
time step continuity errors : sum local = 5.45101e-16, global = 8.80405e-20, cumulative = -1.20495e-19
ExecutionTime = 4.57 s  ClockTime = 4 s

Time = 0.074

Courant Number mean: 0.086547 max: 0.123889
smoothSolver:  Solving for Ux, Initial residual = 0.00596992, Final residual = 7.10447e-07, No Iterations 16
smoothSolver:  Solving for Uy, Initial residual = 0.157776, Final residual = 8.63922e-07, No Iterations 26
DICPCG:  Solving for p, Initial residual = 0.894908, Final residual = 0.0439181, No Iterations 39
time step continuity errors : sum local = 2.90121e-11, global = -6.8479e-20, cumulative = -1.88974e-19
DICPCG:  Solving for p, Initial residual = 0.603598, Final residual = 7.48211e-07, No Iterations 151
time step continuity errors : sum local = 4.29728e-16, global = 1.04624e-19, cumulative = -8.43506e-20
ExecutionTime = 4.63 s  ClockTime = 4 s

Time = 0.075

Courant Number mean: 0.0873323 max: 0.125117
smoothSolver:  Solving for Ux, Initial residual = 0.00585561, Final residual = 6.96589e-07, No Iterations 16
smoothSolver:  Solving for Uy, Initial residual = 0.176531, Final residual = 9.00525e-07, No Iterations 26
DICPCG:  Solving for p, Initial residual = 0.90829, Final residual = 0.0302593, No Iterations 77
time step continuity errors : sum local = 1.84333e-11, global = 2.05847e-21, cumulative = -8.22921e-20
DICPCG:  Solving for p, Initial residual = 0.557716, Final residual = 8.02524e-07, No Iterations 151
time step continuity errors : sum local = 5.32877e-16, global = -5.50923e-20, cumulative = -1.37384e-19
ExecutionTime = 4.69 s  ClockTime = 4 s

Time = 0.076

Courant Number mean: 0.0881099 max: 0.126334
smoothSolver:  Solving for Ux, Initial residual = 0.00574454, Final residual = 9.87041e-07, No Iterations 15
smoothSolver:  Solving for Uy, Initial residual = 0.160184, Final residual = 8.73784e-07, No Iterations 26
DICPCG:  Solving for p, Initial residual = 0.905367, Final residual = 0.0442152, No Iterations 38
time step continuity errors : sum local = 2.93326e-11, global = -1.01839e-20, cumulative = -1.47568e-19
DICPCG:  Solving for p, Initial residual = 0.616294, Final residual = 5.9682e-07, No Iterations 152
time step continuity errors : sum local = 3.98847e-16, global = -4.78233e-20, cumulative = -1.95392e-19
ExecutionTime = 4.75 s  ClockTime = 4 s

Time = 0.077

Courant Number mean: 0.0888799 max: 0.127539
smoothSolver:  Solving for Ux, Initial residual = 0.00563667, Final residual = 9.68993e-07, No Iterations 15
smoothSolver:  Solving for Uy, Initial residual = 0.155944, Final residual = 8.71513e-07, No Iterations 26
DICPCG:  Solving for p, Initial residual = 0.90102, Final residual = 0.0441131, No Iterations 23
time step continuity errors : sum local = 3.07999e-11, global = 3.8576e-20, cumulative = -1.56816e-19
DICPCG:  Solving for p, Initial residual = 0.607513, Final residual = 7.93946e-07, No Iterations 148
time step continuity errors : sum local = 5.36634e-16, global = -5.49076e-20, cumulative = -2.11723e-19
ExecutionTime = 4.8 s  ClockTime = 4 s

Time = 0.078

Courant Number mean: 0.0896424 max: 0.128732
smoothSolver:  Solving for Ux, Initial residual = 0.00553172, Final residual = 9.50796e-07, No Iterations 15
smoothSolver:  Solving for Uy, Initial residual = 0.164786, Final residual = 9.38296e-07, No Iterations 26
DICPCG:  Solving for p, Initial residual = 0.892287, Final residual = 0.0437898, No Iterations 40
time step continuity errors : sum local = 3.47738e-11, global = 7.64618e-20, cumulative = -1.35262e-19
DICPCG:  Solving for p, Initial residual = 0.608894, Final residual = 8.72436e-07, No Iterations 141
time step continuity errors : sum local = 6.16634e-16, global = -9.9953e-21, cumulative = -1.45257e-19
ExecutionTime = 4.85 s  ClockTime = 4 s

Time = 0.079

Courant Number mean: 0.0903975 max: 0.129913
smoothSolver:  Solving for Ux, Initial residual = 0.00542963, Final residual = 9.33306e-07, No Iterations 15
smoothSolver:  Solving for Uy, Initial residual = 0.182187, Final residual = 9.75084e-07, No Iterations 26
DICPCG:  Solving for p, Initial residual = 0.897167, Final residual = 0.0330681, No Iterations 77
time step continuity errors : sum local = 2.42247e-11, global = 3.89202e-20, cumulative = -1.06337e-19
DICPCG:  Solving for p, Initial residual = 0.565056, Final residual = 8.58138e-07, No Iterations 151
time step continuity errors : sum local = 6.78796e-16, global = 1.62699e-20, cumulative = -9.00667e-20
ExecutionTime = 4.92 s  ClockTime = 5 s

Time = 0.08

Courant Number mean: 0.0911451 max: 0.131083
smoothSolver:  Solving for Ux, Initial residual = 0.00533028, Final residual = 9.16272e-07, No Iterations 15
smoothSolver:  Solving for Uy, Initial residual = 0.166125, Final residual = 9.4667e-07, No Iterations 26
DICPCG:  Solving for p, Initial residual = 0.896672, Final residual = 0.0441075, No Iterations 38
time step continuity errors : sum local = 3.22881e-11, global = 3.08559e-20, cumulative = -5.92108e-20
DICPCG:  Solving for p, Initial residual = 0.612993, Final residual = 8.14863e-07, No Iterations 151
time step continuity errors : sum local = 5.8517e-16, global = 3.00389e-21, cumulative = -5.62069e-20
ExecutionTime = 4.97 s  ClockTime = 5 s

Time = 0.081

Courant Number mean: 0.0918855 max: 0.132242
smoothSolver:  Solving for Ux, Initial residual = 0.00523359, Final residual = 8.99528e-07, No Iterations 15
smoothSolver:  Solving for Uy, Initial residual = 0.172464, Final residual = 9.55903e-07, No Iterations 26
DICPCG:  Solving for p, Initial residual = 0.912054, Final residual = 0.0451612, No Iterations 22
time step continuity errors : sum local = 3.53987e-11, global = -8.45979e-20, cumulative = -1.40805e-19
DICPCG:  Solving for p, Initial residual = 0.608991, Final residual = 9.04746e-07, No Iterations 148
time step continuity errors : sum local = 6.8211e-16, global = -4.32407e-20, cumulative = -1.84046e-19
ExecutionTime = 5.02 s  ClockTime = 5 s

Time = 0.082

Courant Number mean: 0.0926186 max: 0.133389
smoothSolver:  Solving for Ux, Initial residual = 0.00513943, Final residual = 8.83154e-07, No Iterations 15
smoothSolver:  Solving for Uy, Initial residual = 0.180237, Final residual = 9.34456e-07, No Iterations 26
DICPCG:  Solving for p, Initial residual = 0.895306, Final residual = 0.0436693, No Iterations 42
time step continuity errors : sum local = 3.89336e-11, global = 2.47073e-20, cumulative = -1.59338e-19
DICPCG:  Solving for p, Initial residual = 0.607632, Final residual = 9.71097e-07, No Iterations 148
time step continuity errors : sum local = 7.46646e-16, global = -4.1137e-20, cumulative = -2.00475e-19
ExecutionTime = 5.08 s  ClockTime = 5 s

Time = 0.083

Courant Number mean: 0.0933445 max: 0.134526
smoothSolver:  Solving for Ux, Initial residual = 0.00504774, Final residual = 8.67396e-07, No Iterations 15
smoothSolver:  Solving for Uy, Initial residual = 0.201499, Final residual = 9.38982e-07, No Iterations 26
DICPCG:  Solving for p, Initial residual = 0.900492, Final residual = 0.0356772, No Iterations 77
time step continuity errors : sum local = 2.90779e-11, global = 5.42479e-21, cumulative = -1.9505e-19
DICPCG:  Solving for p, Initial residual = 0.561986, Final residual = 8.36161e-07, No Iterations 151
time step continuity errors : sum local = 7.38461e-16, global = -4.85394e-20, cumulative = -2.4359e-19
ExecutionTime = 5.14 s  ClockTime = 5 s

Time = 0.084

Courant Number mean: 0.0940634 max: 0.135651
smoothSolver:  Solving for Ux, Initial residual = 0.0049584, Final residual = 8.51984e-07, No Iterations 15
smoothSolver:  Solving for Uy, Initial residual = 0.180264, Final residual = 9.3924e-07, No Iterations 26
DICPCG:  Solving for p, Initial residual = 0.901873, Final residual = 0.0414959, No Iterations 38
time step continuity errors : sum local = 3.34744e-11, global = -2.30967e-20, cumulative = -2.66687e-19
DICPCG:  Solving for p, Initial residual = 0.609285, Final residual = 7.58049e-07, No Iterations 151
time step continuity errors : sum local = 5.8704e-16, global = -4.09273e-20, cumulative = -3.07614e-19
ExecutionTime = 5.2 s  ClockTime = 5 s

Time = 0.085

Courant Number mean: 0.0947752 max: 0.136765
smoothSolver:  Solving for Ux, Initial residual = 0.00487134, Final residual = 8.36974e-07, No Iterations 15
smoothSolver:  Solving for Uy, Initial residual = 0.188797, Final residual = 9.2202e-07, No Iterations 26
DICPCG:  Solving for p, Initial residual = 0.915778, Final residual = 0.0455548, No Iterations 22
time step continuity errors : sum local = 3.91407e-11, global = 1.16265e-19, cumulative = -1.91349e-19
DICPCG:  Solving for p, Initial residual = 0.607421, Final residual = 9.26987e-07, No Iterations 147
time step continuity errors : sum local = 7.53452e-16, global = 8.29818e-20, cumulative = -1.08367e-19
ExecutionTime = 5.25 s  ClockTime = 5 s

Time = 0.086

Courant Number mean: 0.0954801 max: 0.137869
smoothSolver:  Solving for Ux, Initial residual = 0.00478647, Final residual = 8.22439e-07, No Iterations 15
smoothSolver:  Solving for Uy, Initial residual = 0.197866, Final residual = 9.09649e-07, No Iterations 26
DICPCG:  Solving for p, Initial residual = 0.896797, Final residual = 0.0444799, No Iterations 41
time step continuity errors : sum local = 4.42526e-11, global = 1.16625e-19, cumulative = 8.25743e-21
DICPCG:  Solving for p, Initial residual = 0.605919, Final residual = 9.60139e-07, No Iterations 148
time step continuity errors : sum local = 8.05066e-16, global = -9.73935e-20, cumulative = -8.91361e-20
ExecutionTime = 5.31 s  ClockTime = 5 s

Time = 0.087

Courant Number mean: 0.0961781 max: 0.138962
smoothSolver:  Solving for Ux, Initial residual = 0.00470372, Final residual = 8.08234e-07, No Iterations 15
smoothSolver:  Solving for Uy, Initial residual = 0.224774, Final residual = 9.43671e-07, No Iterations 26
DICPCG:  Solving for p, Initial residual = 0.901483, Final residual = 0.0372849, No Iterations 77
time step continuity errors : sum local = 3.31985e-11, global = 9.35618e-20, cumulative = 4.42573e-21
DICPCG:  Solving for p, Initial residual = 0.554838, Final residual = 7.86102e-07, No Iterations 151
time step continuity errors : sum local = 7.69239e-16, global = -4.39046e-20, cumulative = -3.94789e-20
ExecutionTime = 5.37 s  ClockTime = 5 s

Time = 0.088

Courant Number mean: 0.0968693 max: 0.140044
smoothSolver:  Solving for Ux, Initial residual = 0.00462302, Final residual = 7.94375e-07, No Iterations 15
smoothSolver:  Solving for Uy, Initial residual = 0.198461, Final residual = 9.25787e-07, No Iterations 26
DICPCG:  Solving for p, Initial residual = 0.907842, Final residual = 0.0433848, No Iterations 33
time step continuity errors : sum local = 3.76945e-11, global = 9.30736e-20, cumulative = 5.35947e-20
DICPCG:  Solving for p, Initial residual = 0.609999, Final residual = 6.90417e-07, No Iterations 151
time step continuity errors : sum local = 5.82868e-16, global = 1.00018e-19, cumulative = 1.53613e-19
ExecutionTime = 5.42 s  ClockTime = 5 s

Time = 0.089

Courant Number mean: 0.0975538 max: 0.141116
smoothSolver:  Solving for Ux, Initial residual = 0.00454422, Final residual = 7.80982e-07, No Iterations 15
smoothSolver:  Solving for Uy, Initial residual = 0.206143, Final residual = 9.42043e-07, No Iterations 26
DICPCG:  Solving for p, Initial residual = 0.917947, Final residual = 0.0438714, No Iterations 21
time step continuity errors : sum local = 4.12547e-11, global = 5.10062e-20, cumulative = 2.04619e-19
DICPCG:  Solving for p, Initial residual = 0.607555, Final residual = 9.7033e-07, No Iterations 148
time step continuity errors : sum local = 8.6e-16, global = 2.31212e-20, cumulative = 2.2774e-19
ExecutionTime = 5.48 s  ClockTime = 5 s

Time = 0.09

Courant Number mean: 0.0982315 max: 0.142177
smoothSolver:  Solving for Ux, Initial residual = 0.00446732, Final residual = 7.67812e-07, No Iterations 15
smoothSolver:  Solving for Uy, Initial residual = 0.215165, Final residual = 8.96138e-07, No Iterations 26
DICPCG:  Solving for p, Initial residual = 0.897894, Final residual = 0.0409135, No Iterations 76
time step continuity errors : sum local = 3.74783e-11, global = -2.94541e-20, cumulative = 1.98286e-19
DICPCG:  Solving for p, Initial residual = 0.580133, Final residual = 9.52388e-07, No Iterations 150
time step continuity errors : sum local = 9.03646e-16, global = -3.9208e-20, cumulative = 1.59078e-19
ExecutionTime = 5.54 s  ClockTime = 5 s

Time = 0.091

Courant Number mean: 0.0989027 max: 0.143228
smoothSolver:  Solving for Ux, Initial residual = 0.00439226, Final residual = 7.54887e-07, No Iterations 15
smoothSolver:  Solving for Uy, Initial residual = 0.211294, Final residual = 9.19012e-07, No Iterations 26
DICPCG:  Solving for p, Initial residual = 0.919756, Final residual = 0.0435775, No Iterations 39
time step continuity errors : sum local = 4.20129e-11, global = 5.65245e-20, cumulative = 2.15603e-19
DICPCG:  Solving for p, Initial residual = 0.606155, Final residual = 8.75153e-07, No Iterations 150
time step continuity errors : sum local = 7.94617e-16, global = -4.00091e-20, cumulative = 1.75594e-19
ExecutionTime = 5.59 s  ClockTime = 5 s

Time = 0.092

Courant Number mean: 0.0995673 max: 0.144269
smoothSolver:  Solving for Ux, Initial residual = 0.00431898, Final residual = 7.42114e-07, No Iterations 15
smoothSolver:  Solving for Uy, Initial residual = 0.224443, Final residual = 9.33196e-07, No Iterations 26
DICPCG:  Solving for p, Initial residual = 0.906747, Final residual = 0.0417798, No Iterations 23
time step continuity errors : sum local = 4.52072e-11, global = -7.53729e-21, cumulative = 1.68056e-19
DICPCG:  Solving for p, Initial residual = 0.605254, Final residual = 8.2717e-07, No Iterations 148
time step continuity errors : sum local = 7.74821e-16, global = -6.73689e-20, cumulative = 1.00687e-19
ExecutionTime = 5.65 s  ClockTime = 5 s

Time = 0.093

Courant Number mean: 0.100225 max: 0.1453
smoothSolver:  Solving for Ux, Initial residual = 0.00424742, Final residual = 7.29855e-07, No Iterations 15
smoothSolver:  Solving for Uy, Initial residual = 0.245202, Final residual = 8.94794e-07, No Iterations 26
DICPCG:  Solving for p, Initial residual = 0.905972, Final residual = 0.0343157, No Iterations 77
time step continuity errors : sum local = 3.3539e-11, global = 1.52832e-19, cumulative = 2.5352e-19
DICPCG:  Solving for p, Initial residual = 0.557397, Final residual = 7.08572e-07, No Iterations 151
time step continuity errors : sum local = 7.57616e-16, global = 2.40549e-20, cumulative = 2.77575e-19
ExecutionTime = 5.71 s  ClockTime = 5 s

Time = 0.094

Courant Number mean: 0.100877 max: 0.14632
smoothSolver:  Solving for Ux, Initial residual = 0.00417752, Final residual = 7.1781e-07, No Iterations 15
smoothSolver:  Solving for Uy, Initial residual = 0.220515, Final residual = 9.2749e-07, No Iterations 26
DICPCG:  Solving for p, Initial residual = 0.913427, Final residual = 0.0411818, No Iterations 35
time step continuity errors : sum local = 4.06956e-11, global = -5.15244e-20, cumulative = 2.2605e-19
DICPCG:  Solving for p, Initial residual = 0.61031, Final residual = 8.48191e-07, No Iterations 150
time step continuity errors : sum local = 7.96305e-16, global = -1.20173e-19, cumulative = 1.05877e-19
ExecutionTime = 5.76 s  ClockTime = 5 s

Time = 0.095

Courant Number mean: 0.101522 max: 0.147331
smoothSolver:  Solving for Ux, Initial residual = 0.00410923, Final residual = 7.06185e-07, No Iterations 15
smoothSolver:  Solving for Uy, Initial residual = 0.232598, Final residual = 9.16196e-07, No Iterations 26
DICPCG:  Solving for p, Initial residual = 0.922486, Final residual = 0.041089, No Iterations 20
time step continuity errors : sum local = 4.45954e-11, global = -5.35091e-20, cumulative = 5.2368e-20
DICPCG:  Solving for p, Initial residual = 0.604477, Final residual = 8.15003e-07, No Iterations 149
time step continuity errors : sum local = 8.03966e-16, global = 1.85978e-20, cumulative = 7.09658e-20
ExecutionTime = 5.82 s  ClockTime = 5 s

Time = 0.096

Courant Number mean: 0.102161 max: 0.148332
smoothSolver:  Solving for Ux, Initial residual = 0.00404249, Final residual = 6.9481e-07, No Iterations 15
smoothSolver:  Solving for Uy, Initial residual = 0.245284, Final residual = 9.08538e-07, No Iterations 26
DICPCG:  Solving for p, Initial residual = 0.904037, Final residual = 0.0370503, No Iterations 76
time step continuity errors : sum local = 3.75921e-11, global = 4.89746e-20, cumulative = 1.1994e-19
DICPCG:  Solving for p, Initial residual = 0.57311, Final residual = 9.37752e-07, No Iterations 150
time step continuity errors : sum local = 1.00728e-15, global = 1.17171e-21, cumulative = 1.21112e-19
ExecutionTime = 5.88 s  ClockTime = 5 s

Time = 0.097

Courant Number mean: 0.102794 max: 0.149323
smoothSolver:  Solving for Ux, Initial residual = 0.00397721, Final residual = 9.9029e-07, No Iterations 14
smoothSolver:  Solving for Uy, Initial residual = 0.237053, Final residual = 9.30325e-07, No Iterations 26
DICPCG:  Solving for p, Initial residual = 0.928616, Final residual = 0.0454125, No Iterations 45
time step continuity errors : sum local = 5.07428e-11, global = 2.01532e-20, cumulative = 1.41265e-19
DICPCG:  Solving for p, Initial residual = 0.612832, Final residual = 7.36406e-07, No Iterations 151
time step continuity errors : sum local = 8.12637e-16, global = -1.22401e-20, cumulative = 1.29025e-19
ExecutionTime = 5.94 s  ClockTime = 6 s

Time = 0.098

Courant Number mean: 0.103421 max: 0.150305
smoothSolver:  Solving for Ux, Initial residual = 0.00391342, Final residual = 9.75389e-07, No Iterations 14
smoothSolver:  Solving for Uy, Initial residual = 0.230135, Final residual = 9.15149e-07, No Iterations 26
DICPCG:  Solving for p, Initial residual = 0.898434, Final residual = 0.0417398, No Iterations 24
time step continuity errors : sum local = 5.06732e-11, global = 5.81236e-20, cumulative = 1.87149e-19
DICPCG:  Solving for p, Initial residual = 0.612068, Final residual = 8.4099e-07, No Iterations 147
time step continuity errors : sum local = 9.27205e-16, global = 4.76602e-20, cumulative = 2.34809e-19
ExecutionTime = 5.99 s  ClockTime = 6 s

Time = 0.099

Courant Number mean: 0.104041 max: 0.151277
smoothSolver:  Solving for Ux, Initial residual = 0.00385101, Final residual = 9.59762e-07, No Iterations 14
smoothSolver:  Solving for Uy, Initial residual = 0.246976, Final residual = 9.36091e-07, No Iterations 26
DICPCG:  Solving for p, Initial residual = 0.909441, Final residual = 0.0418774, No Iterations 76
time step continuity errors : sum local = 4.7951e-11, global = -9.73166e-21, cumulative = 2.25077e-19
DICPCG:  Solving for p, Initial residual = 0.573677, Final residual = 6.83619e-07, No Iterations 151
time step continuity errors : sum local = 8.43009e-16, global = 1.19317e-19, cumulative = 3.44394e-19
ExecutionTime = 6.05 s  ClockTime = 6 s

Time = 0.1

Courant Number mean: 0.104656 max: 0.152239
smoothSolver:  Solving for Ux, Initial residual = 0.00378995, Final residual = 9.44512e-07, No Iterations 14
smoothSolver:  Solving for Uy, Initial residual = 0.227542, Final residual = 9.60077e-07, No Iterations 26
DICPCG:  Solving for p, Initial residual = 0.908016, Final residual = 0.0432696, No Iterations 37
time step continuity errors : sum local = 5.03139e-11, global = -4.20972e-20, cumulative = 3.02297e-19
DICPCG:  Solving for p, Initial residual = 0.611619, Final residual = 8.9605e-07, No Iterations 150
time step continuity errors : sum local = 1.00735e-15, global = 1.16513e-19, cumulative = 4.1881e-19
ExecutionTime = 6.14 s  ClockTime = 6 s

Time = 0.101

Courant Number mean: 0.105264 max: 0.153192
smoothSolver:  Solving for Ux, Initial residual = 0.00373022, Final residual = 9.29885e-07, No Iterations 14
smoothSolver:  Solving for Uy, Initial residual = 0.232625, Final residual = 9.67888e-07, No Iterations 26
DICPCG:  Solving for p, Initial residual = 0.920674, Final residual = 0.0442983, No Iterations 21
time step continuity errors : sum local = 5.57571e-11, global = 7.55317e-20, cumulative = 4.94341e-19
DICPCG:  Solving for p, Initial residual = 0.608005, Final residual = 7.9808e-07, No Iterations 148
time step continuity errors : sum local = 9.42258e-16, global = -2.23254e-19, cumulative = 2.71087e-19
ExecutionTime = 6.19 s  ClockTime = 6 s

Time = 0.102

Courant Number mean: 0.105867 max: 0.154136
smoothSolver:  Solving for Ux, Initial residual = 0.00367179, Final residual = 9.15175e-07, No Iterations 14
smoothSolver:  Solving for Uy, Initial residual = 0.243385, Final residual = 9.37228e-07, No Iterations 26
DICPCG:  Solving for p, Initial residual = 0.902112, Final residual = 0.0348717, No Iterations 76
time step continuity errors : sum local = 4.20473e-11, global = 1.40747e-20, cumulative = 2.85162e-19
DICPCG:  Solving for p, Initial residual = 0.583137, Final residual = 9.11935e-07, No Iterations 150
time step continuity errors : sum local = 1.14615e-15, global = -5.18117e-20, cumulative = 2.3335e-19
ExecutionTime = 6.25 s  ClockTime = 6 s

Time = 0.103

Courant Number mean: 0.106463 max: 0.155071
smoothSolver:  Solving for Ux, Initial residual = 0.0036146, Final residual = 9.00836e-07, No Iterations 14
smoothSolver:  Solving for Uy, Initial residual = 0.235797, Final residual = 9.60783e-07, No Iterations 26
[...]
time step continuity errors : sum local = 8.15547e-12, global = 7.18775e-20, cumulative = 2.13175e-17
DICPCG:  Solving for p, Initial residual = 0.272619, Final residual = 8.3298e-07, No Iterations 147
time step continuity errors : sum local = 2.39503e-16, global = 1.13347e-19, cumulative = 2.14308e-17
ExecutionTime = 66.55 s  ClockTime = 66 s

Time = 1.27

Courant Number mean: 0.167048 max: 0.249992
smoothSolver:  Solving for Ux, Initial residual = 2.24066e-07, Final residual = 2.24066e-07, No Iterations 0
smoothSolver:  Solving for Uy, Initial residual = 0.19051, Final residual = 7.84703e-07, No Iterations 25
DICPCG:  Solving for p, Initial residual = 0.612721, Final residual = 0.0265443, No Iterations 8
time step continuity errors : sum local = 7.00601e-12, global = -1.08218e-19, cumulative = 2.13226e-17
DICPCG:  Solving for p, Initial residual = 0.258868, Final residual = 9.44674e-07, No Iterations 144
time step continuity errors : sum local = 2.39904e-16, global = 7.20484e-20, cumulative = 2.13946e-17
ExecutionTime = 66.59 s  ClockTime = 66 s

Time = 1.271

Courant Number mean: 0.167048 max: 0.249992
smoothSolver:  Solving for Ux, Initial residual = 2.23047e-07, Final residual = 2.23047e-07, No Iterations 0
smoothSolver:  Solving for Uy, Initial residual = 0.18679, Final residual = 6.93547e-07, No Iterations 25
DICPCG:  Solving for p, Initial residual = 0.620968, Final residual = 0.0309792, No Iterations 4
time step continuity errors : sum local = 8.16852e-12, global = -1.75881e-20, cumulative = 2.1377e-17
DICPCG:  Solving for p, Initial residual = 0.251715, Final residual = 8.03694e-07, No Iterations 144
time step continuity errors : sum local = 2.06232e-16, global = 7.09414e-20, cumulative = 2.1448e-17
ExecutionTime = 66.64 s  ClockTime = 66 s

Time = 1.272

Courant Number mean: 0.167048 max: 0.249992
smoothSolver:  Solving for Ux, Initial residual = 2.22032e-07, Final residual = 2.22032e-07, No Iterations 0
smoothSolver:  Solving for Uy, Initial residual = 0.199657, Final residual = 7.11489e-07, No Iterations 24
DICPCG:  Solving for p, Initial residual = 0.624811, Final residual = 0.0285557, No Iterations 8
time step continuity errors : sum local = 7.69929e-12, global = -2.56695e-20, cumulative = 2.14223e-17
DICPCG:  Solving for p, Initial residual = 0.261252, Final residual = 9.43449e-07, No Iterations 143
time step continuity errors : sum local = 2.37781e-16, global = 8.51059e-20, cumulative = 2.15074e-17
ExecutionTime = 66.68 s  ClockTime = 66 s

Time = 1.273

Courant Number mean: 0.167048 max: 0.249992
smoothSolver:  Solving for Ux, Initial residual = 2.21023e-07, Final residual = 2.21023e-07, No Iterations 0
smoothSolver:  Solving for Uy, Initial residual = 0.207776, Final residual = 9.53135e-07, No Iterations 25
DICPCG:  Solving for p, Initial residual = 0.629253, Final residual = 0.0282454, No Iterations 8
time step continuity errors : sum local = 7.78353e-12, global = 1.22908e-19, cumulative = 2.16303e-17
DICPCG:  Solving for p, Initial residual = 0.260455, Final residual = 8.65605e-07, No Iterations 140
time step continuity errors : sum local = 2.1906e-16, global = -2.69271e-21, cumulative = 2.16276e-17
ExecutionTime = 66.72 s  ClockTime = 66 s

Time = 1.274

Courant Number mean: 0.167048 max: 0.249992
smoothSolver:  Solving for Ux, Initial residual = 2.20018e-07, Final residual = 2.20018e-07, No Iterations 0
smoothSolver:  Solving for Uy, Initial residual = 0.221263, Final residual = 9.90189e-07, No Iterations 25
DICPCG:  Solving for p, Initial residual = 0.62209, Final residual = 0.0302697, No Iterations 9
time step continuity errors : sum local = 8.59218e-12, global = 2.28892e-19, cumulative = 2.18565e-17
DICPCG:  Solving for p, Initial residual = 0.260273, Final residual = 6.8508e-07, No Iterations 146
time step continuity errors : sum local = 1.74976e-16, global = 8.55297e-20, cumulative = 2.19421e-17
ExecutionTime = 66.77 s  ClockTime = 66 s

Time = 1.275

Courant Number mean: 0.167048 max: 0.249992
smoothSolver:  Solving for Ux, Initial residual = 2.19017e-07, Final residual = 2.19017e-07, No Iterations 0
smoothSolver:  Solving for Uy, Initial residual = 0.227073, Final residual = 8.93827e-07, No Iterations 25
DICPCG:  Solving for p, Initial residual = 0.611836, Final residual = 0.0268131, No Iterations 11
time step continuity errors : sum local = 8.12993e-12, global = -3.41176e-20, cumulative = 2.19079e-17
DICPCG:  Solving for p, Initial residual = 0.262083, Final residual = 8.13507e-07, No Iterations 146
time step continuity errors : sum local = 2.07673e-16, global = 1.35334e-19, cumulative = 2.20433e-17
ExecutionTime = 66.81 s  ClockTime = 66 s

Time = 1.276

Courant Number mean: 0.167048 max: 0.249992
smoothSolver:  Solving for Ux, Initial residual = 2.18021e-07, Final residual = 2.18021e-07, No Iterations 0
smoothSolver:  Solving for Uy, Initial residual = 0.225145, Final residual = 9.0499e-07, No Iterations 24
DICPCG:  Solving for p, Initial residual = 0.611637, Final residual = 0.0241, No Iterations 74
time step continuity errors : sum local = 6.28445e-12, global = -3.85794e-20, cumulative = 2.20047e-17
DICPCG:  Solving for p, Initial residual = 0.268779, Final residual = 6.69446e-07, No Iterations 147
time step continuity errors : sum local = 1.76584e-16, global = 1.81722e-19, cumulative = 2.21864e-17
ExecutionTime = 66.87 s  ClockTime = 66 s

Time = 1.277

Courant Number mean: 0.167048 max: 0.249992
smoothSolver:  Solving for Ux, Initial residual = 2.1703e-07, Final residual = 2.1703e-07, No Iterations 0
smoothSolver:  Solving for Uy, Initial residual = 0.172631, Final residual = 7.85354e-07, No Iterations 24
DICPCG:  Solving for p, Initial residual = 0.607443, Final residual = 0.0241496, No Iterations 8
time step continuity errors : sum local = 6.11367e-12, global = 1.94254e-19, cumulative = 2.23807e-17
DICPCG:  Solving for p, Initial residual = 0.260903, Final residual = 8.61319e-07, No Iterations 138
time step continuity errors : sum local = 2.10102e-16, global = -2.34947e-19, cumulative = 2.21457e-17
ExecutionTime = 66.91 s  ClockTime = 67 s

Time = 1.278

Courant Number mean: 0.167048 max: 0.249992
smoothSolver:  Solving for Ux, Initial residual = 2.16043e-07, Final residual = 2.16043e-07, No Iterations 0
smoothSolver:  Solving for Uy, Initial residual = 0.177412, Final residual = 9.11253e-07, No Iterations 24
DICPCG:  Solving for p, Initial residual = 0.589548, Final residual = 0.0290207, No Iterations 7
time step continuity errors : sum local = 7.31623e-12, global = 2.10731e-19, cumulative = 2.23565e-17
DICPCG:  Solving for p, Initial residual = 0.253002, Final residual = 8.6718e-07, No Iterations 144
time step continuity errors : sum local = 2.1155e-16, global = -2.29895e-19, cumulative = 2.21266e-17
ExecutionTime = 66.95 s  ClockTime = 67 s

Time = 1.279

Courant Number mean: 0.167048 max: 0.249992
smoothSolver:  Solving for Ux, Initial residual = 2.15061e-07, Final residual = 2.15061e-07, No Iterations 0
smoothSolver:  Solving for Uy, Initial residual = 0.170622, Final residual = 8.87388e-07, No Iterations 24
DICPCG:  Solving for p, Initial residual = 0.607229, Final residual = 0.026109, No Iterations 8
time step continuity errors : sum local = 6.80531e-12, global = 2.65803e-20, cumulative = 2.21531e-17
DICPCG:  Solving for p, Initial residual = 0.254454, Final residual = 8.08474e-07, No Iterations 145
time step continuity errors : sum local = 1.99625e-16, global = 1.74268e-19, cumulative = 2.23274e-17
ExecutionTime = 67 s  ClockTime = 67 s

Time = 1.28

Courant Number mean: 0.167048 max: 0.249992
smoothSolver:  Solving for Ux, Initial residual = 2.14083e-07, Final residual = 2.14083e-07, No Iterations 0
smoothSolver:  Solving for Uy, Initial residual = 0.18652, Final residual = 8.80195e-07, No Iterations 24
DICPCG:  Solving for p, Initial residual = 0.609893, Final residual = 0.0294143, No Iterations 7
time step continuity errors : sum local = 7.82846e-12, global = -1.77183e-19, cumulative = 2.21502e-17
DICPCG:  Solving for p, Initial residual = 0.252258, Final residual = 9.22535e-07, No Iterations 144
time step continuity errors : sum local = 2.28608e-16, global = -7.71277e-20, cumulative = 2.20731e-17
ExecutionTime = 67.04 s  ClockTime = 67 s

Time = 1.281

Courant Number mean: 0.167048 max: 0.249992
smoothSolver:  Solving for Ux, Initial residual = 2.13109e-07, Final residual = 2.13109e-07, No Iterations 0
smoothSolver:  Solving for Uy, Initial residual = 0.192762, Final residual = 7.98459e-07, No Iterations 24
DICPCG:  Solving for p, Initial residual = 0.608227, Final residual = 0.0274113, No Iterations 9
time step continuity errors : sum local = 7.65942e-12, global = -7.96421e-20, cumulative = 2.19935e-17
DICPCG:  Solving for p, Initial residual = 0.253802, Final residual = 9.47212e-07, No Iterations 144
time step continuity errors : sum local = 2.37545e-16, global = 1.36313e-19, cumulative = 2.21298e-17
ExecutionTime = 67.08 s  ClockTime = 67 s

Time = 1.282

Courant Number mean: 0.167048 max: 0.249992
smoothSolver:  Solving for Ux, Initial residual = 2.12141e-07, Final residual = 2.12141e-07, No Iterations 0
smoothSolver:  Solving for Uy, Initial residual = 0.198331, Final residual = 7.18935e-07, No Iterations 25
DICPCG:  Solving for p, Initial residual = 0.616208, Final residual = 0.0266513, No Iterations 11
time step continuity errors : sum local = 7.80691e-12, global = -1.9582e-20, cumulative = 2.21102e-17
DICPCG:  Solving for p, Initial residual = 0.26087, Final residual = 8.318e-07, No Iterations 146
time step continuity errors : sum local = 2.10597e-16, global = -3.59417e-20, cumulative = 2.20742e-17
ExecutionTime = 67.13 s  ClockTime = 67 s

Time = 1.283

Courant Number mean: 0.167048 max: 0.249992
smoothSolver:  Solving for Ux, Initial residual = 2.11176e-07, Final residual = 2.11176e-07, No Iterations 0
smoothSolver:  Solving for Uy, Initial residual = 0.199996, Final residual = 8.6049e-07, No Iterations 24
DICPCG:  Solving for p, Initial residual = 0.623738, Final residual = 0.0294141, No Iterations 12
time step continuity errors : sum local = 8.90809e-12, global = 1.23303e-19, cumulative = 2.21975e-17
DICPCG:  Solving for p, Initial residual = 0.255635, Final residual = 9.17871e-07, No Iterations 146
time step continuity errors : sum local = 2.33364e-16, global = 5.72407e-20, cumulative = 2.22548e-17
ExecutionTime = 67.17 s  ClockTime = 67 s

Time = 1.284

Courant Number mean: 0.167048 max: 0.249992
smoothSolver:  Solving for Ux, Initial residual = 2.10216e-07, Final residual = 2.10216e-07, No Iterations 0
smoothSolver:  Solving for Uy, Initial residual = 0.227805, Final residual = 7.98514e-07, No Iterations 24
DICPCG:  Solving for p, Initial residual = 0.618747, Final residual = 0.0264882, No Iterations 74
time step continuity errors : sum local = 6.84139e-12, global = 1.18253e-19, cumulative = 2.2373e-17
DICPCG:  Solving for p, Initial residual = 0.269023, Final residual = 6.18963e-07, No Iterations 147
time step continuity errors : sum local = 1.63627e-16, global = -1.21699e-19, cumulative = 2.22513e-17
ExecutionTime = 67.23 s  ClockTime = 67 s

Time = 1.285

Courant Number mean: 0.167048 max: 0.249992
smoothSolver:  Solving for Ux, Initial residual = 2.0926e-07, Final residual = 2.0926e-07, No Iterations 0
smoothSolver:  Solving for Uy, Initial residual = 0.177561, Final residual = 9.55553e-07, No Iterations 24
DICPCG:  Solving for p, Initial residual = 0.599308, Final residual = 0.0278519, No Iterations 7
time step continuity errors : sum local = 6.95989e-12, global = 1.90227e-19, cumulative = 2.24416e-17
DICPCG:  Solving for p, Initial residual = 0.252129, Final residual = 8.37565e-07, No Iterations 143
time step continuity errors : sum local = 2.05054e-16, global = -6.00506e-20, cumulative = 2.23815e-17
ExecutionTime = 67.27 s  ClockTime = 67 s

Time = 1.286

Courant Number mean: 0.167048 max: 0.249992
smoothSolver:  Solving for Ux, Initial residual = 2.08308e-07, Final residual = 2.08308e-07, No Iterations 0
smoothSolver:  Solving for Uy, Initial residual = 0.170487, Final residual = 9.06683e-07, No Iterations 24
DICPCG:  Solving for p, Initial residual = 0.601964, Final residual = 0.0272177, No Iterations 5
time step continuity errors : sum local = 6.80949e-12, global = 8.19447e-20, cumulative = 2.24635e-17
DICPCG:  Solving for p, Initial residual = 0.255166, Final residual = 8.78536e-07, No Iterations 143
time step continuity errors : sum local = 2.13193e-16, global = -1.3373e-19, cumulative = 2.23297e-17
ExecutionTime = 67.32 s  ClockTime = 67 s

Time = 1.287

Courant Number mean: 0.167048 max: 0.249992
smoothSolver:  Solving for Ux, Initial residual = 2.07361e-07, Final residual = 2.07361e-07, No Iterations 0
smoothSolver:  Solving for Uy, Initial residual = 0.173744, Final residual = 8.67905e-07, No Iterations 24
DICPCG:  Solving for p, Initial residual = 0.607662, Final residual = 0.0290458, No Iterations 7
time step continuity errors : sum local = 7.28783e-12, global = 3.03888e-19, cumulative = 2.26336e-17
DICPCG:  Solving for p, Initial residual = 0.24685, Final residual = 9.21513e-07, No Iterations 144
time step continuity errors : sum local = 2.20317e-16, global = -8.92569e-20, cumulative = 2.25444e-17
ExecutionTime = 67.36 s  ClockTime = 67 s

Time = 1.288

Courant Number mean: 0.167048 max: 0.249993
smoothSolver:  Solving for Ux, Initial residual = 2.06418e-07, Final residual = 2.06418e-07, No Iterations 0
smoothSolver:  Solving for Uy, Initial residual = 0.198003, Final residual = 7.19355e-07, No Iterations 25
DICPCG:  Solving for p, Initial residual = 0.619719, Final residual = 0.026547, No Iterations 8
time step continuity errors : sum local = 6.93886e-12, global = -1.11549e-19, cumulative = 2.24328e-17
DICPCG:  Solving for p, Initial residual = 0.257745, Final residual = 8.08537e-07, No Iterations 142
time step continuity errors : sum local = 1.96123e-16, global = -7.52255e-22, cumulative = 2.24321e-17
ExecutionTime = 67.41 s  ClockTime = 67 s

Time = 1.289

Courant Number mean: 0.167048 max: 0.249993
smoothSolver:  Solving for Ux, Initial residual = 2.05479e-07, Final residual = 2.05479e-07, No Iterations 0
smoothSolver:  Solving for Uy, Initial residual = 0.199112, Final residual = 7.17159e-07, No Iterations 25
DICPCG:  Solving for p, Initial residual = 0.614309, Final residual = 0.0299186, No Iterations 10
time step continuity errors : sum local = 7.87563e-12, global = 7.19144e-20, cumulative = 2.2504e-17
DICPCG:  Solving for p, Initial residual = 0.263263, Final residual = 8.64551e-07, No Iterations 146
time step continuity errors : sum local = 2.07527e-16, global = 5.05066e-20, cumulative = 2.25545e-17
ExecutionTime = 67.45 s  ClockTime = 67 s

Time = 1.29

Courant Number mean: 0.167048 max: 0.249993
smoothSolver:  Solving for Ux, Initial residual = 2.04545e-07, Final residual = 2.04545e-07, No Iterations 0
smoothSolver:  Solving for Uy, Initial residual = 0.209847, Final residual = 7.31613e-07, No Iterations 25
DICPCG:  Solving for p, Initial residual = 0.62736, Final residual = 0.0310851, No Iterations 23
time step continuity errors : sum local = 8.10796e-12, global = -1.91023e-19, cumulative = 2.23635e-17
DICPCG:  Solving for p, Initial residual = 0.261242, Final residual = 8.79069e-07, No Iterations 144
time step continuity errors : sum local = 2.09866e-16, global = -7.08045e-20, cumulative = 2.22927e-17
ExecutionTime = 67.5 s  ClockTime = 67 s

Time = 1.291

Courant Number mean: 0.167048 max: 0.249993
smoothSolver:  Solving for Ux, Initial residual = 2.03614e-07, Final residual = 2.03614e-07, No Iterations 0
smoothSolver:  Solving for Uy, Initial residual = 0.20313, Final residual = 8.81113e-07, No Iterations 24
DICPCG:  Solving for p, Initial residual = 0.612578, Final residual = 0.0290057, No Iterations 9
time step continuity errors : sum local = 8.00517e-12, global = -1.02672e-19, cumulative = 2.219e-17
DICPCG:  Solving for p, Initial residual = 0.259063, Final residual = 8.99673e-07, No Iterations 146
time step continuity errors : sum local = 2.18502e-16, global = -2.5999e-20, cumulative = 2.2164e-17
ExecutionTime = 67.54 s  ClockTime = 67 s

Time = 1.292

Courant Number mean: 0.167048 max: 0.249993
smoothSolver:  Solving for Ux, Initial residual = 2.02688e-07, Final residual = 2.02688e-07, No Iterations 0
smoothSolver:  Solving for Uy, Initial residual = 0.223703, Final residual = 8.90193e-07, No Iterations 25
DICPCG:  Solving for p, Initial residual = 0.612217, Final residual = 0.0275831, No Iterations 11
time step continuity errors : sum local = 8.10651e-12, global = -2.02874e-19, cumulative = 2.19611e-17
DICPCG:  Solving for p, Initial residual = 0.266723, Final residual = 6.68837e-07, No Iterations 148
time step continuity errors : sum local = 1.60569e-16, global = -8.8566e-20, cumulative = 2.18725e-17
ExecutionTime = 67.59 s  ClockTime = 67 s

Time = 1.293

Courant Number mean: 0.167048 max: 0.249993
smoothSolver:  Solving for Ux, Initial residual = 2.01767e-07, Final residual = 2.01767e-07, No Iterations 0
smoothSolver:  Solving for Uy, Initial residual = 0.230916, Final residual = 8.81657e-07, No Iterations 24
DICPCG:  Solving for p, Initial residual = 0.603933, Final residual = 0.0266482, No Iterations 74
time step continuity errors : sum local = 6.42831e-12, global = -8.24536e-20, cumulative = 2.17901e-17
DICPCG:  Solving for p, Initial residual = 0.270076, Final residual = 8.36428e-07, No Iterations 147
time step continuity errors : sum local = 2.05338e-16, global = 8.64271e-20, cumulative = 2.18765e-17
ExecutionTime = 67.64 s  ClockTime = 67 s

Time = 1.294

Courant Number mean: 0.167048 max: 0.249993
smoothSolver:  Solving for Ux, Initial residual = 2.00849e-07, Final residual = 2.00849e-07, No Iterations 0
smoothSolver:  Solving for Uy, Initial residual = 0.174563, Final residual = 7.26616e-07, No Iterations 25
DICPCG:  Solving for p, Initial residual = 0.611239, Final residual = 0.0296866, No Iterations 7
time step continuity errors : sum local = 7.03841e-12, global = 5.44549e-20, cumulative = 2.1931e-17
DICPCG:  Solving for p, Initial residual = 0.251453, Final residual = 9.1487e-07, No Iterations 143
time step continuity errors : sum local = 2.11143e-16, global = 8.44022e-20, cumulative = 2.20154e-17
ExecutionTime = 67.69 s  ClockTime = 67 s

Time = 1.295

Courant Number mean: 0.167048 max: 0.249993
smoothSolver:  Solving for Ux, Initial residual = 1.99936e-07, Final residual = 1.99936e-07, No Iterations 0
smoothSolver:  Solving for Uy, Initial residual = 0.183328, Final residual = 7.06837e-07, No Iterations 25
DICPCG:  Solving for p, Initial residual = 0.604052, Final residual = 0.0297014, No Iterations 6
time step continuity errors : sum local = 7.10488e-12, global = -2.78861e-20, cumulative = 2.19875e-17
DICPCG:  Solving for p, Initial residual = 0.24818, Final residual = 9.48026e-07, No Iterations 140
time step continuity errors : sum local = 2.16171e-16, global = -1.10431e-19, cumulative = 2.18771e-17
ExecutionTime = 67.73 s  ClockTime = 67 s

Time = 1.296

Courant Number mean: 0.167048 max: 0.249993
smoothSolver:  Solving for Ux, Initial residual = 1.99026e-07, Final residual = 1.99026e-07, No Iterations 0
smoothSolver:  Solving for Uy, Initial residual = 0.196998, Final residual = 9.87543e-07, No Iterations 24
DICPCG:  Solving for p, Initial residual = 0.606252, Final residual = 0.0290452, No Iterations 8
time step continuity errors : sum local = 7.0793e-12, global = 2.54948e-20, cumulative = 2.19026e-17
DICPCG:  Solving for p, Initial residual = 0.259207, Final residual = 7.43763e-07, No Iterations 146
time step continuity errors : sum local = 1.69362e-16, global = 1.20995e-19, cumulative = 2.20235e-17
ExecutionTime = 67.77 s  ClockTime = 67 s

regIOobject::readIfModified() : 
    Re-reading object controlDict from file "/home/anoldfriend/OpenFOAM/anoldfriend-7/applications/test/incompressible/poiseuilleFlowDrivenByGravity/system/controlDict"
End

