/*---------------------------------------------------------------------------*\
  =========                 |
  \\      /  F ield         | OpenFOAM: The Open Source CFD Toolbox
   \\    /   O peration     | Website:  https://openfoam.org
    \\  /    A nd           | Version:  7
     \\/     M anipulation  |
\*---------------------------------------------------------------------------*/
Build  : 7-7dc73e32f723
Exec   : blockMesh
Date   : Nov 30 2020
Time   : 16:06:27
Host   : "DESKTOP-VSJ4QNK"
PID    : 29575
I/O    : uncollated
Case   : /home/anoldfriend/OpenFOAM/anoldfriend-7/applications/test/singlePhaseDBS/poiseuilleFlowDrivenByGravity
nProcs : 1
sigFpe : Enabling floating point exception trapping (FOAM_SIGFPE).
fileModificationChecking : Monitoring run-time modified files using timeStampMaster (fileModificationSkew 10)
allowSystemOperations : Allowing user-supplied system call operations

// * * * * * * * * * * * * * * * * * * * * * * * * * * * * * * * * * * * * * //
Create time

Creating block mesh from
    "/home/anoldfriend/OpenFOAM/anoldfriend-7/applications/test/singlePhaseDBS/poiseuilleFlowDrivenByGravity/system/blockMeshDict"
Creating block edges
No non-planar block faces defined
Creating topology blocks
Creating topology patches

Creating block mesh topology

Check topology

	Basic statistics
		Number of internal faces : 0
		Number of boundary faces : 6
		Number of defined boundary faces : 6
		Number of undefined boundary faces : 0
	Checking patch -> block consistency

Creating block offsets
Creating merge list .

Creating polyMesh from blockMesh
Creating patches
Creating cells
Creating points with scale 0.1
    Block 0 cell size :
        i : 0.005 .. 0.005
        j : 0.000379709 .. 0.000379709
        k : 0.01

Detected cyclic patches; ordering boundary faces

Writing polyMesh
----------------
Mesh Information
----------------
  boundingBox: (0 0 0) (0.5 0.1 0.01)
  nPoints: 8282
  nCells: 4000
  nFaces: 16140
  nInternalFaces: 7860
----------------
Patches
----------------
  patch 0 (start: 7860 size: 40) name: velocity-inlet
  patch 1 (start: 7900 size: 40) name: velocity-outlet
  patch 2 (start: 7940 size: 200) name: fixedWalls
  patch 3 (start: 8140 size: 8000) name: frontAndBack

End

/*---------------------------------------------------------------------------*\
  =========                 |
  \\      /  F ield         | OpenFOAM: The Open Source CFD Toolbox
   \\    /   O peration     | Website:  https://openfoam.org
    \\  /    A nd           | Version:  7
     \\/     M anipulation  |
\*---------------------------------------------------------------------------*/
Build  : 7-7dc73e32f723
Exec   : checkMesh
Date   : Nov 30 2020
Time   : 16:06:28
Host   : "DESKTOP-VSJ4QNK"
PID    : 29577
I/O    : uncollated
Case   : /home/anoldfriend/OpenFOAM/anoldfriend-7/applications/test/singlePhaseDBS/poiseuilleFlowDrivenByGravity
nProcs : 1
sigFpe : Enabling floating point exception trapping (FOAM_SIGFPE).
fileModificationChecking : Monitoring run-time modified files using timeStampMaster (fileModificationSkew 10)
allowSystemOperations : Allowing user-supplied system call operations

// * * * * * * * * * * * * * * * * * * * * * * * * * * * * * * * * * * * * * //
Create time

Create polyMesh for time = 0

Time = 0

Mesh stats
    points:           8282
    internal points:  0
    faces:            16140
    internal faces:   7860
    cells:            4000
    faces per cell:   6
    boundary patches: 4
    point zones:      0
    face zones:       0
    cell zones:       0

Overall number of cells of each type:
    hexahedra:     4000
    prisms:        0
    wedges:        0
    pyramids:      0
    tet wedges:    0
    tetrahedra:    0
    polyhedra:     0

Checking topology...
    Boundary definition OK.
    Cell to face addressing OK.
    Point usage OK.
    Upper triangular ordering OK.
    Face vertices OK.
    Number of regions: 1 (OK).

Checking patch topology for multiply connected surfaces...
    Patch               Faces    Points   Surface topology                  
    velocity-inlet      40       82       ok (non-closed singly connected)  
    velocity-outlet     40       82       ok (non-closed singly connected)  
    fixedWalls          200      404      ok (non-closed singly connected)  
    frontAndBack        8000     8282     ok (non-closed singly connected)  

Checking geometry...
    Overall domain bounding box (0 0 0) (0.5 0.1 0.01)
    Mesh has 2 geometric (non-empty/wedge) directions (1 1 0)
    Mesh has 2 solution (non-empty) directions (1 1 0)
    All edges aligned with or perpendicular to non-empty directions.
    Boundary openness (8.62159e-19 6.59476e-18 -3.7513e-16) OK.
    Max cell openness = 1.35525e-16 OK.
    Max aspect ratio = 13.168 OK.
    Minimum face area = 1.89854e-06. Maximum face area = 5e-05.  Face area magnitudes OK.
    Min volume = 1.89854e-08. Max volume = 2.5e-07.  Total volume = 0.0005.  Cell volumes OK.
    Mesh non-orthogonality Max: 0 average: 0
    Non-orthogonality check OK.
    Face pyramids OK.
    Max skewness = 8.93574e-14 OK.
    Coupled point location match (average 5.55112e-17) OK.

Mesh OK.

End

/*---------------------------------------------------------------------------*\
  =========                 |
  \\      /  F ield         | OpenFOAM: The Open Source CFD Toolbox
   \\    /   O peration     | Website:  https://openfoam.org
    \\  /    A nd           | Version:  7
     \\/     M anipulation  |
\*---------------------------------------------------------------------------*/
Build  : 7-7dc73e32f723
Exec   : /home/anoldfriend/OpenFOAM/anoldfriend-7/platforms/linux64GccDPInt32Opt/bin/icoDBSFoam
Date   : Nov 30 2020
Time   : 16:06:28
Host   : "DESKTOP-VSJ4QNK"
PID    : 29579
I/O    : uncollated
Case   : /home/anoldfriend/OpenFOAM/anoldfriend-7/applications/test/singlePhaseDBS/poiseuilleFlowDrivenByGravity
nProcs : 1
sigFpe : Enabling floating point exception trapping (FOAM_SIGFPE).
fileModificationChecking : Monitoring run-time modified files using timeStampMaster (fileModificationSkew 10)
allowSystemOperations : Allowing user-supplied system call operations

// * * * * * * * * * * * * * * * * * * * * * * * * * * * * * * * * * * * * * //
Create time

Create mesh for time = 0

Reading transportProperties

Reading field p

Reading field U


Reading field porosity
create permeability filed


Reading g
Reading/calculating face flux field phi


Starting time loop

Reading set description:
    line

Time = 0.001

Courant Number mean: 0 max: 0
smoothSolver:  Solving for Ux, Initial residual = 1, Final residual = 7.34171e-07, No Iterations 16
smoothSolver:  Solving for Uy, Initial residual = 0, Final residual = 0, No Iterations 0
DICPCG:  Solving for p, Initial residual = 0.999999, Final residual = 0.0377448, No Iterations 51
time step continuity errors : sum local = 1.08515e-15, global = -2.65986e-23, cumulative = -2.65986e-23
DICPCG:  Solving for p, Initial residual = 0.497078, Final residual = 6.80714e-07, No Iterations 90
time step continuity errors : sum local = 4.15725e-20, global = -3.60885e-23, cumulative = -6.2687e-23
ExecutionTime = 0.18 s  ClockTime = 0 s

Time = 0.002

Courant Number mean: 2.15266e-05 max: 2.1978e-05
smoothSolver:  Solving for Ux, Initial residual = 0.202723, Final residual = 5.22077e-07, No Iterations 14
smoothSolver:  Solving for Uy, Initial residual = 0.136123, Final residual = 5.17682e-07, No Iterations 16
DICPCG:  Solving for p, Initial residual = 0.695477, Final residual = 0.0266534, No Iterations 28
time step continuity errors : sum local = 1.10939e-15, global = -1.75903e-23, cumulative = -8.02773e-23
DICPCG:  Solving for p, Initial residual = 0.625939, Final residual = 7.57244e-07, No Iterations 83
time step continuity errors : sum local = 1.31225e-20, global = 3.04665e-23, cumulative = -4.98109e-23
ExecutionTime = 0.2 s  ClockTime = 0 s

Time = 0.003

Courant Number mean: 2.38666e-05 max: 2.43932e-05
smoothSolver:  Solving for Ux, Initial residual = 0.0239284, Final residual = 9.74292e-07, No Iterations 10
smoothSolver:  Solving for Uy, Initial residual = 0.391462, Final residual = 5.18149e-07, No Iterations 17
DICPCG:  Solving for p, Initial residual = 0.813859, Final residual = 0.0341156, No Iterations 51
time step continuity errors : sum local = 6.19531e-16, global = -1.34114e-23, cumulative = -6.32223e-23
DICPCG:  Solving for p, Initial residual = 0.412581, Final residual = 8.87901e-07, No Iterations 89
time step continuity errors : sum local = 3.11575e-20, global = 7.94912e-24, cumulative = -5.52731e-23
ExecutionTime = 0.22 s  ClockTime = 0 s

Time = 0.004

Courant Number mean: 2.41216e-05 max: 2.46586e-05
smoothSolver:  Solving for Ux, Initial residual = 0.00263071, Final residual = 8.59566e-07, No Iterations 7
smoothSolver:  Solving for Uy, Initial residual = 0.140763, Final residual = 4.84794e-07, No Iterations 16
DICPCG:  Solving for p, Initial residual = 0.394184, Final residual = 0.0142426, No Iterations 47
time step continuity errors : sum local = 2.42705e-16, global = -2.8904e-23, cumulative = -8.41771e-23
DICPCG:  Solving for p, Initial residual = 0.462058, Final residual = 7.82548e-07, No Iterations 87
time step continuity errors : sum local = 9.45594e-21, global = -1.63427e-23, cumulative = -1.0052e-22
ExecutionTime = 0.24 s  ClockTime = 0 s

Time = 0.005

Courant Number mean: 2.41495e-05 max: 2.46878e-05
smoothSolver:  Solving for Ux, Initial residual = 0.000287876, Final residual = 8.46085e-07, No Iterations 4
smoothSolver:  Solving for Uy, Initial residual = 0.222246, Final residual = 5.57899e-07, No Iterations 16
DICPCG:  Solving for p, Initial residual = 0.462559, Final residual = 0.021869, No Iterations 49
time step continuity errors : sum local = 2.39984e-16, global = -2.18295e-23, cumulative = -1.22349e-22
DICPCG:  Solving for p, Initial residual = 0.373832, Final residual = 9.58646e-07, No Iterations 89
time step continuity errors : sum local = 1.32246e-20, global = -2.5609e-24, cumulative = -1.2491e-22
ExecutionTime = 0.27 s  ClockTime = 0 s

Time = 0.006

Courant Number mean: 2.41525e-05 max: 2.4691e-05
smoothSolver:  Solving for Ux, Initial residual = 3.19462e-05, Final residual = 5.79796e-07, No Iterations 2
smoothSolver:  Solving for Uy, Initial residual = 0.179923, Final residual = 7.2156e-07, No Iterations 15
DICPCG:  Solving for p, Initial residual = 0.353151, Final residual = 0.0149292, No Iterations 26
time step continuity errors : sum local = 1.74885e-16, global = -1.56195e-23, cumulative = -1.4053e-22
DICPCG:  Solving for p, Initial residual = 0.480162, Final residual = 7.5126e-07, No Iterations 87
time step continuity errors : sum local = 6.44564e-21, global = -2.65739e-23, cumulative = -1.67104e-22
ExecutionTime = 0.28 s  ClockTime = 0 s

Time = 0.007

Courant Number mean: 2.41528e-05 max: 2.46913e-05
smoothSolver:  Solving for Ux, Initial residual = 3.80307e-06, Final residual = 3.20739e-07, No Iterations 1
smoothSolver:  Solving for Uy, Initial residual = 0.243361, Final residual = 7.59273e-07, No Iterations 15
DICPCG:  Solving for p, Initial residual = 0.560054, Final residual = 0.0236668, No Iterations 48
time step continuity errors : sum local = 1.47157e-16, global = 8.32885e-24, cumulative = -1.58775e-22
DICPCG:  Solving for p, Initial residual = 0.613791, Final residual = 7.68902e-07, No Iterations 89
time step continuity errors : sum local = 5.07389e-21, global = -1.54411e-23, cumulative = -1.74216e-22
ExecutionTime = 0.31 s  ClockTime = 0 s

Time = 0.008

Courant Number mean: 2.41529e-05 max: 2.46914e-05
smoothSolver:  Solving for Ux, Initial residual = 5.7206e-07, Final residual = 5.7206e-07, No Iterations 0
smoothSolver:  Solving for Uy, Initial residual = 0.256343, Final residual = 5.90931e-07, No Iterations 15
DICPCG:  Solving for p, Initial residual = 0.48576, Final residual = 0.0206188, No Iterations 47
time step continuity errors : sum local = 3.25712e-17, global = 1.51668e-23, cumulative = -1.59049e-22
DICPCG:  Solving for p, Initial residual = 0.463615, Final residual = 9.89648e-07, No Iterations 88
time step continuity errors : sum local = 1.94039e-21, global = 2.27924e-24, cumulative = -1.5677e-22
ExecutionTime = 0.33 s  ClockTime = 0 s

Time = 0.009

Courant Number mean: 2.41529e-05 max: 2.46914e-05
smoothSolver:  Solving for Ux, Initial residual = 1.97704e-07, Final residual = 1.97704e-07, No Iterations 0
smoothSolver:  Solving for Uy, Initial residual = 0.232672, Final residual = 7.43338e-07, No Iterations 15
DICPCG:  Solving for p, Initial residual = 0.620817, Final residual = 0.0296571, No Iterations 47
time step continuity errors : sum local = 1.59295e-17, global = 1.39463e-23, cumulative = -1.42824e-22
DICPCG:  Solving for p, Initial residual = 0.394128, Final residual = 8.04409e-07, No Iterations 89
time step continuity errors : sum local = 1.68358e-21, global = 2.98813e-24, cumulative = -1.39835e-22
ExecutionTime = 0.35 s  ClockTime = 0 s

Time = 0.01

Courant Number mean: 2.41529e-05 max: 2.46914e-05
smoothSolver:  Solving for Ux, Initial residual = 1.05227e-07, Final residual = 1.05227e-07, No Iterations 0
smoothSolver:  Solving for Uy, Initial residual = 0.202447, Final residual = 7.69236e-07, No Iterations 15
DICPCG:  Solving for p, Initial residual = 0.504337, Final residual = 0.0237829, No Iterations 25
time step continuity errors : sum local = 9.18403e-18, global = -1.40984e-23, cumulative = -1.53934e-22
DICPCG:  Solving for p, Initial residual = 0.4647, Final residual = 7.68602e-07, No Iterations 87
time step continuity errors : sum local = 1.63952e-21, global = 4.54779e-24, cumulative = -1.49386e-22
ExecutionTime = 0.36 s  ClockTime = 0 s

Time = 0.011

Courant Number mean: 2.41529e-05 max: 2.46914e-05
smoothSolver:  Solving for Ux, Initial residual = 6.59193e-08, Final residual = 6.59193e-08, No Iterations 0
smoothSolver:  Solving for Uy, Initial residual = 0.211972, Final residual = 5.33935e-07, No Iterations 16
DICPCG:  Solving for p, Initial residual = 0.679939, Final residual = 0.0300513, No Iterations 48
time step continuity errors : sum local = 4.56554e-18, global = 2.43567e-23, cumulative = -1.25029e-22
DICPCG:  Solving for p, Initial residual = 0.402333, Final residual = 7.40837e-07, No Iterations 89
time step continuity errors : sum local = 1.58584e-21, global = 3.12991e-23, cumulative = -9.37303e-23
ExecutionTime = 0.38 s  ClockTime = 0 s

Time = 0.012

Courant Number mean: 2.41529e-05 max: 2.46914e-05
smoothSolver:  Solving for Ux, Initial residual = 4.32724e-08, Final residual = 4.32724e-08, No Iterations 0
smoothSolver:  Solving for Uy, Initial residual = 0.183643, Final residual = 9.38171e-07, No Iterations 15
DICPCG:  Solving for p, Initial residual = 0.549023, Final residual = 0.0220273, No Iterations 47
time step continuity errors : sum local = 2.10696e-18, global = 2.45716e-23, cumulative = -6.91586e-23
DICPCG:  Solving for p, Initial residual = 0.533777, Final residual = 9.72524e-07, No Iterations 88
time step continuity errors : sum local = 1.63392e-21, global = -2.45848e-23, cumulative = -9.37434e-23
ExecutionTime = 0.4 s  ClockTime = 0 s

Time = 0.013

Courant Number mean: 2.41529e-05 max: 2.46914e-05
smoothSolver:  Solving for Ux, Initial residual = 2.88329e-08, Final residual = 2.88329e-08, No Iterations 0
smoothSolver:  Solving for Uy, Initial residual = 0.187255, Final residual = 4.81345e-07, No Iterations 16
DICPCG:  Solving for p, Initial residual = 0.672137, Final residual = 0.0271661, No Iterations 47
time step continuity errors : sum local = 1.34664e-18, global = 2.12605e-23, cumulative = -7.24829e-23
DICPCG:  Solving for p, Initial residual = 0.49276, Final residual = 8.22298e-07, No Iterations 89
time step continuity errors : sum local = 1.54681e-21, global = 8.45278e-25, cumulative = -7.16376e-23
ExecutionTime = 0.42 s  ClockTime = 0 s

Time = 0.014

Courant Number mean: 2.41529e-05 max: 2.46914e-05
smoothSolver:  Solving for Ux, Initial residual = 1.93313e-08, Final residual = 1.93313e-08, No Iterations 0
smoothSolver:  Solving for Uy, Initial residual = 0.172313, Final residual = 9.70708e-07, No Iterations 15
DICPCG:  Solving for p, Initial residual = 0.564619, Final residual = 0.024869, No Iterations 23
time step continuity errors : sum local = 9.45808e-19, global = 6.9182e-24, cumulative = -6.47194e-23
DICPCG:  Solving for p, Initial residual = 0.53464, Final residual = 8.5322e-07, No Iterations 87
time step continuity errors : sum local = 1.61434e-21, global = 1.33061e-23, cumulative = -5.14133e-23
ExecutionTime = 0.44 s  ClockTime = 0 s

Time = 0.015

Courant Number mean: 2.41529e-05 max: 2.46914e-05
smoothSolver:  Solving for Ux, Initial residual = 1.30028e-08, Final residual = 1.30028e-08, No Iterations 0
smoothSolver:  Solving for Uy, Initial residual = 0.181996, Final residual = 5.35918e-07, No Iterations 16
DICPCG:  Solving for p, Initial residual = 0.683917, Final residual = 0.0315803, No Iterations 47
time step continuity errors : sum local = 5.86345e-19, global = -9.76622e-24, cumulative = -6.11795e-23
DICPCG:  Solving for p, Initial residual = 0.483385, Final residual = 8.09511e-07, No Iterations 89
time step continuity errors : sum local = 1.57101e-21, global = 3.51015e-23, cumulative = -2.6078e-23
ExecutionTime = 0.46 s  ClockTime = 0 s

Time = 0.016

Courant Number mean: 2.41529e-05 max: 2.46914e-05
smoothSolver:  Solving for Ux, Initial residual = 8.76276e-09, Final residual = 8.76276e-09, No Iterations 0
smoothSolver:  Solving for Uy, Initial residual = 0.167253, Final residual = 4.88603e-07, No Iterations 16
DICPCG:  Solving for p, Initial residual = 0.585923, Final residual = 0.024508, No Iterations 24
time step continuity errors : sum local = 3.7306e-19, global = -5.5064e-24, cumulative = -3.15844e-23
DICPCG:  Solving for p, Initial residual = 0.549116, Final residual = 7.6269e-07, No Iterations 87
time step continuity errors : sum local = 1.56919e-21, global = -1.14726e-23, cumulative = -4.30571e-23
ExecutionTime = 0.48 s  ClockTime = 0 s

Time = 0.017

Courant Number mean: 2.41529e-05 max: 2.46914e-05
smoothSolver:  Solving for Ux, Initial residual = 5.9125e-09, Final residual = 5.9125e-09, No Iterations 0
smoothSolver:  Solving for Uy, Initial residual = 0.17757, Final residual = 5.60081e-07, No Iterations 16
DICPCG:  Solving for p, Initial residual = 0.678691, Final residual = 0.0240838, No Iterations 48
time step continuity errors : sum local = 1.77232e-19, global = 5.10765e-25, cumulative = -4.25463e-23
DICPCG:  Solving for p, Initial residual = 0.473751, Final residual = 8.1926e-07, No Iterations 89
time step continuity errors : sum local = 1.57056e-21, global = -2.67958e-23, cumulative = -6.93421e-23
ExecutionTime = 0.5 s  ClockTime = 0 s

Time = 0.018

Courant Number mean: 2.41529e-05 max: 2.46914e-05
smoothSolver:  Solving for Ux, Initial residual = 3.99253e-09, Final residual = 3.99253e-09, No Iterations 0
smoothSolver:  Solving for Uy, Initial residual = 0.162592, Final residual = 4.92091e-07, No Iterations 16
DICPCG:  Solving for p, Initial residual = 0.599474, Final residual = 0.0266204, No Iterations 25
time step continuity errors : sum local = 1.64191e-19, global = 3.16107e-23, cumulative = -3.77314e-23
DICPCG:  Solving for p, Initial residual = 0.558191, Final residual = 8.21061e-07, No Iterations 87
time step continuity errors : sum local = 1.61203e-21, global = 1.06565e-23, cumulative = -2.70749e-23
ExecutionTime = 0.52 s  ClockTime = 0 s

Time = 0.019

Courant Number mean: 2.41529e-05 max: 2.46914e-05
smoothSolver:  Solving for Ux, Initial residual = 2.69748e-09, Final residual = 2.69748e-09, No Iterations 0
smoothSolver:  Solving for Uy, Initial residual = 0.176517, Final residual = 5.85475e-07, No Iterations 16
DICPCG:  Solving for p, Initial residual = 0.672597, Final residual = 0.0257172, No Iterations 48
time step continuity errors : sum local = 7.84922e-20, global = -2.284e-23, cumulative = -4.99149e-23
DICPCG:  Solving for p, Initial residual = 0.467771, Final residual = 8.29302e-07, No Iterations 89
time step continuity errors : sum local = 1.54982e-21, global = -1.89776e-24, cumulative = -5.18127e-23
ExecutionTime = 0.54 s  ClockTime = 0 s

Time = 0.02

Courant Number mean: 2.41529e-05 max: 2.46914e-05
smoothSolver:  Solving for Ux, Initial residual = 1.82317e-09, Final residual = 1.82317e-09, No Iterations 0
smoothSolver:  Solving for Uy, Initial residual = 0.16154, Final residual = 4.94764e-07, No Iterations 16
DICPCG:  Solving for p, Initial residual = 0.615746, Final residual = 0.022074, No Iterations 47
time step continuity errors : sum local = 4.2137e-20, global = -7.23667e-24, cumulative = -5.90494e-23
DICPCG:  Solving for p, Initial residual = 0.558394, Final residual = 6.08305e-07, No Iterations 89
time step continuity errors : sum local = 1.53893e-21, global = 3.02291e-23, cumulative = -2.88203e-23
ExecutionTime = 0.56 s  ClockTime = 0 s

Time = 0.021

Courant Number mean: 2.41529e-05 max: 2.46914e-05
smoothSolver:  Solving for Ux, Initial residual = 1.23255e-09, Final residual = 1.23255e-09, No Iterations 0
smoothSolver:  Solving for Uy, Initial residual = 0.164395, Final residual = 4.86528e-07, No Iterations 16
DICPCG:  Solving for p, Initial residual = 0.676616, Final residual = 0.0294293, No Iterations 25
time step continuity errors : sum local = 4.36307e-20, global = -1.88191e-23, cumulative = -4.76394e-23
DICPCG:  Solving for p, Initial residual = 0.622223, Final residual = 9.03506e-07, No Iterations 87
time step continuity errors : sum local = 1.59394e-21, global = -1.04344e-24, cumulative = -4.86828e-23
ExecutionTime = 0.58 s  ClockTime = 0 s

Time = 0.022

Courant Number mean: 2.41529e-05 max: 2.46914e-05
smoothSolver:  Solving for Ux, Initial residual = 8.33416e-10, Final residual = 8.33416e-10, No Iterations 0
smoothSolver:  Solving for Uy, Initial residual = 0.166202, Final residual = 5.62885e-07, No Iterations 16
DICPCG:  Solving for p, Initial residual = 0.609968, Final residual = 0.022619, No Iterations 48
time step continuity errors : sum local = 1.89224e-20, global = -2.6339e-23, cumulative = -7.50218e-23
DICPCG:  Solving for p, Initial residual = 0.485474, Final residual = 8.63106e-07, No Iterations 89
time step continuity errors : sum local = 1.5733e-21, global = 2.08129e-23, cumulative = -5.42089e-23
ExecutionTime = 0.6 s  ClockTime = 0 s

Time = 0.023

Courant Number mean: 2.41529e-05 max: 2.46914e-05
smoothSolver:  Solving for Ux, Initial residual = 5.63601e-10, Final residual = 5.63601e-10, No Iterations 0
smoothSolver:  Solving for Uy, Initial residual = 0.162758, Final residual = 4.82234e-07, No Iterations 16
DICPCG:  Solving for p, Initial residual = 0.664177, Final residual = 0.0253448, No Iterations 47
time step continuity errors : sum local = 1.23212e-20, global = -3.99512e-25, cumulative = -5.46085e-23
DICPCG:  Solving for p, Initial residual = 0.511641, Final residual = 7.47394e-07, No Iterations 89
time step continuity errors : sum local = 1.62091e-21, global = -3.99316e-23, cumulative = -9.454e-23
ExecutionTime = 0.62 s  ClockTime = 0 s

Time = 0.024

Courant Number mean: 2.41529e-05 max: 2.46914e-05
smoothSolver:  Solving for Ux, Initial residual = 3.81171e-10, Final residual = 3.81171e-10, No Iterations 0
smoothSolver:  Solving for Uy, Initial residual = 0.15655, Final residual = 9.79888e-07, No Iterations 15
DICPCG:  Solving for p, Initial residual = 0.589173, Final residual = 0.0266359, No Iterations 23
time step continuity errors : sum local = 1.0649e-20, global = 9.45409e-25, cumulative = -9.35946e-23
DICPCG:  Solving for p, Initial residual = 0.54523, Final residual = 7.06437e-07, No Iterations 87
time step continuity errors : sum local = 1.59638e-21, global = 6.40543e-24, cumulative = -8.71892e-23
ExecutionTime = 0.63 s  ClockTime = 0 s

Time = 0.025

Courant Number mean: 2.41529e-05 max: 2.46914e-05
smoothSolver:  Solving for Ux, Initial residual = 2.57807e-10, Final residual = 2.57807e-10, No Iterations 0
smoothSolver:  Solving for Uy, Initial residual = 0.163975, Final residual = 5.3145e-07, No Iterations 16
DICPCG:  Solving for p, Initial residual = 0.619215, Final residual = 0.0268651, No Iterations 47
time step continuity errors : sum local = 6.1109e-21, global = -4.82193e-23, cumulative = -1.35408e-22
DICPCG:  Solving for p, Initial residual = 0.461497, Final residual = 7.5691e-07, No Iterations 89
time step continuity errors : sum local = 1.56432e-21, global = 5.16155e-25, cumulative = -1.34892e-22
ExecutionTime = 0.65 s  ClockTime = 0 s

Time = 0.026

Courant Number mean: 2.41529e-05 max: 2.46914e-05
smoothSolver:  Solving for Ux, Initial residual = 1.74377e-10, Final residual = 1.74377e-10, No Iterations 0
smoothSolver:  Solving for Uy, Initial residual = 0.155294, Final residual = 9.81006e-07, No Iterations 15
DICPCG:  Solving for p, Initial residual = 0.547837, Final residual = 0.0246124, No Iterations 24
time step continuity errors : sum local = 5.11498e-21, global = -2.54111e-24, cumulative = -1.37433e-22
DICPCG:  Solving for p, Initial residual = 0.489573, Final residual = 6.78534e-07, No Iterations 87
time step continuity errors : sum local = 1.5807e-21, global = 7.12208e-25, cumulative = -1.36721e-22
ExecutionTime = 0.67 s  ClockTime = 0 s

Time = 0.027

Courant Number mean: 2.41529e-05 max: 2.46914e-05
smoothSolver:  Solving for Ux, Initial residual = 1.17949e-10, Final residual = 1.17949e-10, No Iterations 0
smoothSolver:  Solving for Uy, Initial residual = 0.163233, Final residual = 5.41089e-07, No Iterations 16
DICPCG:  Solving for p, Initial residual = 0.536539, Final residual = 0.0261016, No Iterations 47
time step continuity errors : sum local = 3.2411e-21, global = -1.41679e-23, cumulative = -1.50889e-22
DICPCG:  Solving for p, Initial residual = 0.39587, Final residual = 6.93327e-07, No Iterations 89
time step continuity errors : sum local = 1.6012e-21, global = -2.03965e-23, cumulative = -1.71286e-22
ExecutionTime = 0.69 s  ClockTime = 0 s

Time = 0.028

Courant Number mean: 2.41529e-05 max: 2.46914e-05
smoothSolver:  Solving for Ux, Initial residual = 7.97834e-11, Final residual = 7.97834e-11, No Iterations 0
smoothSolver:  Solving for Uy, Initial residual = 0.154967, Final residual = 9.77063e-07, No Iterations 15
DICPCG:  Solving for p, Initial residual = 0.462469, Final residual = 0.0217095, No Iterations 25
time step continuity errors : sum local = 2.94663e-21, global = -4.38336e-23, cumulative = -2.15119e-22
DICPCG:  Solving for p, Initial residual = 0.398956, Final residual = 9.41198e-07, No Iterations 86
time step continuity errors : sum local = 1.61062e-21, global = -3.97502e-23, cumulative = -2.54869e-22
ExecutionTime = 0.71 s  ClockTime = 0 s

Time = 0.029

Courant Number mean: 2.41529e-05 max: 2.46914e-05
smoothSolver:  Solving for Ux, Initial residual = 5.3968e-11, Final residual = 5.3968e-11, No Iterations 0
smoothSolver:  Solving for Uy, Initial residual = 0.164556, Final residual = 5.62483e-07, No Iterations 16
DICPCG:  Solving for p, Initial residual = 0.425866, Final residual = 0.0153329, No Iterations 48
time step continuity errors : sum local = 1.88871e-21, global = -1.46687e-23, cumulative = -2.69538e-22
DICPCG:  Solving for p, Initial residual = 0.313232, Final residual = 8.59825e-07, No Iterations 88
time step continuity errors : sum local = 1.54867e-21, global = -1.34484e-23, cumulative = -2.82987e-22
ExecutionTime = 0.73 s  ClockTime = 0 s

Time = 0.03

Courant Number mean: 2.41529e-05 max: 2.46914e-05
smoothSolver:  Solving for Ux, Initial residual = 3.65061e-11, Final residual = 3.65061e-11, No Iterations 0
smoothSolver:  Solving for Uy, Initial residual = 0.151142, Final residual = 9.28476e-07, No Iterations 15
DICPCG:  Solving for p, Initial residual = 0.339409, Final residual = 0.0150752, No Iterations 23
time step continuity errors : sum local = 1.96577e-21, global = -1.48664e-23, cumulative = -2.97853e-22
DICPCG:  Solving for p, Initial residual = 0.284601, Final residual = 9.32212e-07, No Iterations 85
time step continuity errors : sum local = 1.56315e-21, global = -2.19381e-23, cumulative = -3.19791e-22
ExecutionTime = 0.75 s  ClockTime = 0 s

Time = 0.031

Courant Number mean: 2.41529e-05 max: 2.46914e-05
smoothSolver:  Solving for Ux, Initial residual = 2.46944e-11, Final residual = 2.46944e-11, No Iterations 0
smoothSolver:  Solving for Uy, Initial residual = 0.157271, Final residual = 5.13981e-07, No Iterations 16
DICPCG:  Solving for p, Initial residual = 0.290622, Final residual = 0.0116882, No Iterations 47
time step continuity errors : sum local = 1.71818e-21, global = 1.9299e-23, cumulative = -3.00492e-22
DICPCG:  Solving for p, Initial residual = 0.226658, Final residual = 8.83616e-07, No Iterations 86
time step continuity errors : sum local = 1.57285e-21, global = -2.66956e-23, cumulative = -3.27188e-22
ExecutionTime = 0.77 s  ClockTime = 0 s

Time = 0.032

Courant Number mean: 2.41529e-05 max: 2.46914e-05
smoothSolver:  Solving for Ux, Initial residual = 1.67045e-11, Final residual = 1.67045e-11, No Iterations 0
smoothSolver:  Solving for Uy, Initial residual = 0.147291, Final residual = 9.4872e-07, No Iterations 15
DICPCG:  Solving for p, Initial residual = 0.219123, Final residual = 0.0106401, No Iterations 22
time step continuity errors : sum local = 1.6283e-21, global = -1.95225e-23, cumulative = -3.4671e-22
DICPCG:  Solving for p, Initial residual = 0.186247, Final residual = 7.00675e-07, No Iterations 84
time step continuity errors : sum local = 1.51758e-21, global = -5.57512e-23, cumulative = -4.02461e-22
ExecutionTime = 0.78 s  ClockTime = 0 s

Time = 0.033

Courant Number mean: 2.41529e-05 max: 2.46914e-05
smoothSolver:  Solving for Ux, Initial residual = 1.12998e-11, Final residual = 1.12998e-11, No Iterations 0
smoothSolver:  Solving for Uy, Initial residual = 0.149407, Final residual = 9.98974e-07, No Iterations 15
DICPCG:  Solving for p, Initial residual = 0.181809, Final residual = 0.00808024, No Iterations 22
time step continuity errors : sum local = 1.61437e-21, global = -5.93631e-23, cumulative = -4.61824e-22
DICPCG:  Solving for p, Initial residual = 0.145511, Final residual = 7.23533e-07, No Iterations 84
time step continuity errors : sum local = 1.47983e-21, global = -4.23775e-23, cumulative = -5.04202e-22
ExecutionTime = 0.8 s  ClockTime = 0 s

Time = 0.034

Courant Number mean: 2.41529e-05 max: 2.46914e-05
smoothSolver:  Solving for Ux, Initial residual = 7.64385e-12, Final residual = 7.64385e-12, No Iterations 0
smoothSolver:  Solving for Uy, Initial residual = 0.147983, Final residual = 5.05537e-07, No Iterations 16
DICPCG:  Solving for p, Initial residual = 0.151432, Final residual = 0.00687827, No Iterations 46
time step continuity errors : sum local = 1.51814e-21, global = -2.0229e-23, cumulative = -5.24431e-22
DICPCG:  Solving for p, Initial residual = 0.115495, Final residual = 7.44745e-07, No Iterations 84
time step continuity errors : sum local = 1.48602e-21, global = 2.51339e-24, cumulative = -5.21918e-22
ExecutionTime = 0.82 s  ClockTime = 1 s

Time = 0.035

Courant Number mean: 2.41529e-05 max: 2.46914e-05
smoothSolver:  Solving for Ux, Initial residual = 5.17076e-12, Final residual = 5.17076e-12, No Iterations 0
smoothSolver:  Solving for Uy, Initial residual = 0.133515, Final residual = 8.90674e-07, No Iterations 15
DICPCG:  Solving for p, Initial residual = 0.116931, Final residual = 0.00470547, No Iterations 46
time step continuity errors : sum local = 1.51201e-21, global = -3.0741e-23, cumulative = -5.52659e-22
DICPCG:  Solving for p, Initial residual = 0.0915027, Final residual = 9.50347e-07, No Iterations 83
time step continuity errors : sum local = 1.49596e-21, global = -4.67629e-23, cumulative = -5.99422e-22
ExecutionTime = 0.84 s  ClockTime = 1 s

Time = 0.036

Courant Number mean: 2.41529e-05 max: 2.46914e-05
smoothSolver:  Solving for Ux, Initial residual = 3.49784e-12, Final residual = 3.49784e-12, No Iterations 0
smoothSolver:  Solving for Uy, Initial residual = 0.119367, Final residual = 6.97485e-07, No Iterations 15
DICPCG:  Solving for p, Initial residual = 0.0964481, Final residual = 0.00380689, No Iterations 43
time step continuity errors : sum local = 1.507e-21, global = -2.91851e-23, cumulative = -6.28607e-22
DICPCG:  Solving for p, Initial residual = 0.0704653, Final residual = 7.74181e-07, No Iterations 82
time step continuity errors : sum local = 1.48856e-21, global = -4.39445e-23, cumulative = -6.72551e-22
ExecutionTime = 0.86 s  ClockTime = 1 s

Time = 0.037

Courant Number mean: 2.41529e-05 max: 2.46914e-05
smoothSolver:  Solving for Ux, Initial residual = 2.36619e-12, Final residual = 2.36619e-12, No Iterations 0
smoothSolver:  Solving for Uy, Initial residual = 0.115436, Final residual = 8.00916e-07, No Iterations 15
DICPCG:  Solving for p, Initial residual = 0.0827472, Final residual = 0.00311355, No Iterations 46
time step continuity errors : sum local = 1.51652e-21, global = -6.07361e-23, cumulative = -7.33287e-22
DICPCG:  Solving for p, Initial residual = 0.0616317, Final residual = 7.94188e-07, No Iterations 82
time step continuity errors : sum local = 1.48929e-21, global = -2.34792e-23, cumulative = -7.56766e-22
ExecutionTime = 0.88 s  ClockTime = 1 s

Time = 0.038

Courant Number mean: 2.41529e-05 max: 2.46914e-05
smoothSolver:  Solving for Ux, Initial residual = 1.60069e-12, Final residual = 1.60069e-12, No Iterations 0
smoothSolver:  Solving for Uy, Initial residual = 0.0952454, Final residual = 6.08108e-07, No Iterations 15
DICPCG:  Solving for p, Initial residual = 0.0681721, Final residual = 0.00333877, No Iterations 12
time step continuity errors : sum local = 1.49708e-21, global = -4.1915e-23, cumulative = -7.98681e-22
DICPCG:  Solving for p, Initial residual = 0.0528927, Final residual = 9.77666e-07, No Iterations 79
time step continuity errors : sum local = 1.48272e-21, global = -5.98688e-24, cumulative = -8.04668e-22
ExecutionTime = 0.89 s  ClockTime = 1 s

Time = 0.039

Courant Number mean: 2.41529e-05 max: 2.46914e-05
smoothSolver:  Solving for Ux, Initial residual = 1.08286e-12, Final residual = 1.08286e-12, No Iterations 0
smoothSolver:  Solving for Uy, Initial residual = 0.0731279, Final residual = 8.42031e-07, No Iterations 14
DICPCG:  Solving for p, Initial residual = 0.0581545, Final residual = 0.00270563, No Iterations 43
time step continuity errors : sum local = 1.47906e-21, global = -3.22367e-23, cumulative = -8.36905e-22
DICPCG:  Solving for p, Initial residual = 0.0482633, Final residual = 9.19389e-07, No Iterations 70
time step continuity errors : sum local = 1.49715e-21, global = -4.82074e-23, cumulative = -8.85112e-22
ExecutionTime = 0.91 s  ClockTime = 1 s

Time = 0.04

Courant Number mean: 2.41529e-05 max: 2.46914e-05
smoothSolver:  Solving for Ux, Initial residual = 7.32578e-13, Final residual = 7.32578e-13, No Iterations 0
smoothSolver:  Solving for Uy, Initial residual = 0.0691099, Final residual = 4.8789e-07, No Iterations 15
DICPCG:  Solving for p, Initial residual = 0.0583032, Final residual = 0.00241854, No Iterations 46
time step continuity errors : sum local = 1.56479e-21, global = -4.84973e-23, cumulative = -9.3361e-22
DICPCG:  Solving for p, Initial residual = 0.0518089, Final residual = 9.56068e-07, No Iterations 80
time step continuity errors : sum local = 1.45351e-21, global = -2.80133e-23, cumulative = -9.61623e-22
ExecutionTime = 0.93 s  ClockTime = 1 s

Time = 0.041

Courant Number mean: 2.41529e-05 max: 2.46914e-05
smoothSolver:  Solving for Ux, Initial residual = 4.95607e-13, Final residual = 4.95607e-13, No Iterations 0
smoothSolver:  Solving for Uy, Initial residual = 0.0534525, Final residual = 5.3076e-07, No Iterations 14
DICPCG:  Solving for p, Initial residual = 0.0534575, Final residual = 0.00242738, No Iterations 18
time step continuity errors : sum local = 1.4952e-21, global = 1.17555e-23, cumulative = -9.49868e-22
DICPCG:  Solving for p, Initial residual = 0.0437532, Final residual = 8.25304e-07, No Iterations 78
time step continuity errors : sum local = 1.48168e-21, global = -2.91806e-24, cumulative = -9.52786e-22
ExecutionTime = 0.95 s  ClockTime = 1 s

Time = 0.042

Courant Number mean: 2.41529e-05 max: 2.46914e-05
smoothSolver:  Solving for Ux, Initial residual = 3.35349e-13, Final residual = 3.35349e-13, No Iterations 0
smoothSolver:  Solving for Uy, Initial residual = 0.0802562, Final residual = 5.45414e-07, No Iterations 15
DICPCG:  Solving for p, Initial residual = 0.0577656, Final residual = 0.00235571, No Iterations 46
time step continuity errors : sum local = 1.44055e-21, global = -3.0786e-24, cumulative = -9.55864e-22
DICPCG:  Solving for p, Initial residual = 0.0469829, Final residual = 9.68292e-07, No Iterations 79
time step continuity errors : sum local = 1.40303e-21, global = -3.41432e-23, cumulative = -9.90007e-22
ExecutionTime = 0.97 s  ClockTime = 1 s

Time = 0.043

Courant Number mean: 2.41529e-05 max: 2.46914e-05
smoothSolver:  Solving for Ux, Initial residual = 2.26922e-13, Final residual = 2.26922e-13, No Iterations 0
smoothSolver:  Solving for Uy, Initial residual = 0.118026, Final residual = 9.85492e-07, No Iterations 15
DICPCG:  Solving for p, Initial residual = 0.0628865, Final residual = 0.00260925, No Iterations 47
time step continuity errors : sum local = 1.40185e-21, global = -1.11541e-23, cumulative = -1.00116e-21
DICPCG:  Solving for p, Initial residual = 0.0505726, Final residual = 7.81302e-07, No Iterations 80
time step continuity errors : sum local = 1.35441e-21, global = -1.8069e-23, cumulative = -1.01923e-21
ExecutionTime = 0.99 s  ClockTime = 1 s

Time = 0.044

Courant Number mean: 2.41529e-05 max: 2.46914e-05
smoothSolver:  Solving for Ux, Initial residual = 1.5356e-13, Final residual = 1.5356e-13, No Iterations 0
smoothSolver:  Solving for Uy, Initial residual = 0.0676258, Final residual = 5.62648e-07, No Iterations 14
DICPCG:  Solving for p, Initial residual = 0.0450406, Final residual = 0.00214685, No Iterations 16
time step continuity errors : sum local = 1.39505e-21, global = -5.62751e-23, cumulative = -1.07551e-21
DICPCG:  Solving for p, Initial residual = 0.0413024, Final residual = 8.4226e-07, No Iterations 77
time step continuity errors : sum local = 1.44268e-21, global = -2.92515e-23, cumulative = -1.10476e-21
ExecutionTime = 1 s  ClockTime = 1 s

Time = 0.045

Courant Number mean: 2.41529e-05 max: 2.46914e-05
smoothSolver:  Solving for Ux, Initial residual = 1.03945e-13, Final residual = 1.03945e-13, No Iterations 0
smoothSolver:  Solving for Uy, Initial residual = 0.0811723, Final residual = 5.72315e-07, No Iterations 15
DICPCG:  Solving for p, Initial residual = 0.051849, Final residual = 0.00253817, No Iterations 9
time step continuity errors : sum local = 1.48856e-21, global = -2.92739e-23, cumulative = -1.13403e-21
DICPCG:  Solving for p, Initial residual = 0.0414926, Final residual = 9.08633e-07, No Iterations 79
time step continuity errors : sum local = 1.446e-21, global = -3.77643e-23, cumulative = -1.1718e-21
ExecutionTime = 1.02 s  ClockTime = 1 s

Time = 0.046

Courant Number mean: 2.41529e-05 max: 2.46914e-05
smoothSolver:  Solving for Ux, Initial residual = 7.03829e-14, Final residual = 7.03829e-14, No Iterations 0
smoothSolver:  Solving for Uy, Initial residual = 0.0722177, Final residual = 5.93903e-07, No Iterations 15
DICPCG:  Solving for p, Initial residual = 0.0544147, Final residual = 0.00210925, No Iterations 47
time step continuity errors : sum local = 1.47619e-21, global = -2.33479e-25, cumulative = -1.17203e-21
DICPCG:  Solving for p, Initial residual = 0.0468434, Final residual = 8.77358e-07, No Iterations 79
time step continuity errors : sum local = 1.42063e-21, global = -2.73692e-23, cumulative = -1.1994e-21
ExecutionTime = 1.04 s  ClockTime = 1 s

Time = 0.047

Courant Number mean: 2.41529e-05 max: 2.46914e-05
smoothSolver:  Solving for Ux, Initial residual = 4.7689e-14, Final residual = 4.7689e-14, No Iterations 0
smoothSolver:  Solving for Uy, Initial residual = 0.070462, Final residual = 5.04041e-07, No Iterations 15
DICPCG:  Solving for p, Initial residual = 0.0495378, Final residual = 0.00179885, No Iterations 46
time step continuity errors : sum local = 1.48108e-21, global = 8.88691e-24, cumulative = -1.19051e-21
DICPCG:  Solving for p, Initial residual = 0.0421824, Final residual = 9.63734e-07, No Iterations 80
time step continuity errors : sum local = 1.45098e-21, global = -5.64368e-23, cumulative = -1.24695e-21
ExecutionTime = 1.05 s  ClockTime = 1 s

Time = 0.048

Courant Number mean: 2.41529e-05 max: 2.46914e-05
smoothSolver:  Solving for Ux, Initial residual = 3.23629e-14, Final residual = 3.23629e-14, No Iterations 0
smoothSolver:  Solving for Uy, Initial residual = 0.072298, Final residual = 5.27065e-07, No Iterations 15
DICPCG:  Solving for p, Initial residual = 0.0488993, Final residual = 0.0021162, No Iterations 46
time step continuity errors : sum local = 1.49709e-21, global = -9.60393e-24, cumulative = -1.25655e-21
DICPCG:  Solving for p, Initial residual = 0.0460416, Final residual = 9.77618e-07, No Iterations 80
time step continuity errors : sum local = 1.4807e-21, global = -5.45925e-23, cumulative = -1.31114e-21
ExecutionTime = 1.07 s  ClockTime = 1 s

Time = 0.049

Courant Number mean: 2.41529e-05 max: 2.46914e-05
smoothSolver:  Solving for Ux, Initial residual = 2.1951e-14, Final residual = 2.1951e-14, No Iterations 0
smoothSolver:  Solving for Uy, Initial residual = 0.0630545, Final residual = 9.00618e-07, No Iterations 14
DICPCG:  Solving for p, Initial residual = 0.0465481, Final residual = 0.00131862, No Iterations 46
time step continuity errors : sum local = 1.44757e-21, global = -5.08677e-23, cumulative = -1.36201e-21
DICPCG:  Solving for p, Initial residual = 0.0386983, Final residual = 7.55831e-07, No Iterations 79
time step continuity errors : sum local = 1.4587e-21, global = -4.51135e-23, cumulative = -1.40713e-21
ExecutionTime = 1.09 s  ClockTime = 1 s

Time = 0.05

Courant Number mean: 2.41529e-05 max: 2.46914e-05
smoothSolver:  Solving for Ux, Initial residual = 1.49277e-14, Final residual = 1.49277e-14, No Iterations 0
smoothSolver:  Solving for Uy, Initial residual = 0.0530789, Final residual = 5.6833e-07, No Iterations 14
DICPCG:  Solving for p, Initial residual = 0.0440151, Final residual = 0.00195138, No Iterations 44
time step continuity errors : sum local = 1.40846e-21, global = -5.02336e-24, cumulative = -1.41215e-21
DICPCG:  Solving for p, Initial residual = 0.0381208, Final residual = 9.77347e-07, No Iterations 78
time step continuity errors : sum local = 1.42801e-21, global = -1.77065e-23, cumulative = -1.42986e-21
ExecutionTime = 1.13 s  ClockTime = 1 s

Time = 0.051

Courant Number mean: 2.41529e-05 max: 2.46914e-05
smoothSolver:  Solving for Ux, Initial residual = 1.01776e-14, Final residual = 1.01776e-14, No Iterations 0
smoothSolver:  Solving for Uy, Initial residual = 0.0838322, Final residual = 6.25013e-07, No Iterations 15
DICPCG:  Solving for p, Initial residual = 0.0488063, Final residual = 0.00181373, No Iterations 47
time step continuity errors : sum local = 1.45463e-21, global = -2.56212e-23, cumulative = -1.45548e-21
DICPCG:  Solving for p, Initial residual = 0.0429461, Final residual = 6.88824e-07, No Iterations 82
time step continuity errors : sum local = 1.43629e-21, global = -6.19021e-23, cumulative = -1.51738e-21
ExecutionTime = 1.16 s  ClockTime = 1 s

Time = 0.052

Courant Number mean: 2.41529e-05 max: 2.46914e-05
smoothSolver:  Solving for Ux, Initial residual = 6.95657e-15, Final residual = 6.95657e-15, No Iterations 0
smoothSolver:  Solving for Uy, Initial residual = 0.0846843, Final residual = 6.54737e-07, No Iterations 15
DICPCG:  Solving for p, Initial residual = 0.0476621, Final residual = 0.00234434, No Iterations 46
time step continuity errors : sum local = 1.43742e-21, global = -2.29181e-23, cumulative = -1.5403e-21
DICPCG:  Solving for p, Initial residual = 0.0446098, Final residual = 7.0639e-07, No Iterations 79
time step continuity errors : sum local = 1.39805e-21, global = -8.66451e-24, cumulative = -1.54896e-21
ExecutionTime = 1.18 s  ClockTime = 1 s

Time = 0.053

Courant Number mean: 2.41529e-05 max: 2.46914e-05
smoothSolver:  Solving for Ux, Initial residual = 4.78839e-15, Final residual = 4.78839e-15, No Iterations 0
smoothSolver:  Solving for Uy, Initial residual = 0.0910313, Final residual = 7.4552e-07, No Iterations 15
DICPCG:  Solving for p, Initial residual = 0.0530413, Final residual = 0.00202854, No Iterations 47
time step continuity errors : sum local = 1.43413e-21, global = -1.62286e-23, cumulative = -1.56519e-21
DICPCG:  Solving for p, Initial residual = 0.0420078, Final residual = 8.9057e-07, No Iterations 80
time step continuity errors : sum local = 1.36897e-21, global = -2.06914e-23, cumulative = -1.58588e-21
ExecutionTime = 1.2 s  ClockTime = 1 s

Time = 0.054

Courant Number mean: 2.41529e-05 max: 2.46914e-05
smoothSolver:  Solving for Ux, Initial residual = 3.33742e-15, Final residual = 3.33742e-15, No Iterations 0
smoothSolver:  Solving for Uy, Initial residual = 0.0893821, Final residual = 6.85669e-07, No Iterations 15
DICPCG:  Solving for p, Initial residual = 0.0478998, Final residual = 0.00173069, No Iterations 47
time step continuity errors : sum local = 1.38194e-21, global = -1.79055e-23, cumulative = -1.60379e-21
DICPCG:  Solving for p, Initial residual = 0.0406341, Final residual = 8.23249e-07, No Iterations 79
time step continuity errors : sum local = 1.37473e-21, global = -3.6105e-23, cumulative = -1.63989e-21
ExecutionTime = 1.21 s  ClockTime = 1 s

Time = 0.055

Courant Number mean: 2.41529e-05 max: 2.46914e-05
smoothSolver:  Solving for Ux, Initial residual = 2.3383e-15, Final residual = 2.3383e-15, No Iterations 0
smoothSolver:  Solving for Uy, Initial residual = 0.0607528, Final residual = 7.41235e-07, No Iterations 14
DICPCG:  Solving for p, Initial residual = 0.0433937, Final residual = 0.00157933, No Iterations 46
time step continuity errors : sum local = 1.4261e-21, global = -2.1381e-23, cumulative = -1.66127e-21
DICPCG:  Solving for p, Initial residual = 0.0355234, Final residual = 7.61047e-07, No Iterations 78
time step continuity errors : sum local = 1.42508e-21, global = -3.61386e-23, cumulative = -1.69741e-21
ExecutionTime = 1.23 s  ClockTime = 1 s

Time = 0.056

Courant Number mean: 2.41529e-05 max: 2.46914e-05
smoothSolver:  Solving for Ux, Initial residual = 1.68199e-15, Final residual = 1.68199e-15, No Iterations 0
smoothSolver:  Solving for Uy, Initial residual = 0.0583135, Final residual = 5.97227e-07, No Iterations 14
DICPCG:  Solving for p, Initial residual = 0.0367254, Final residual = 0.00163225, No Iterations 44
time step continuity errors : sum local = 1.49197e-21, global = -3.23609e-23, cumulative = -1.72977e-21
DICPCG:  Solving for p, Initial residual = 0.0397108, Final residual = 8.39176e-07, No Iterations 80
time step continuity errors : sum local = 1.43763e-21, global = -3.61573e-23, cumulative = -1.76593e-21
ExecutionTime = 1.25 s  ClockTime = 1 s

Time = 0.057

Courant Number mean: 2.41529e-05 max: 2.46914e-05
smoothSolver:  Solving for Ux, Initial residual = 1.2149e-15, Final residual = 1.2149e-15, No Iterations 0
smoothSolver:  Solving for Uy, Initial residual = 0.0509119, Final residual = 5.35308e-07, No Iterations 14
DICPCG:  Solving for p, Initial residual = 0.040732, Final residual = 0.00188425, No Iterations 10
time step continuity errors : sum local = 1.50843e-21, global = -4.78893e-23, cumulative = -1.81382e-21
DICPCG:  Solving for p, Initial residual = 0.0291457, Final residual = 6.9021e-07, No Iterations 78
time step continuity errors : sum local = 1.46745e-21, global = -4.53943e-23, cumulative = -1.85921e-21
ExecutionTime = 1.27 s  ClockTime = 1 s

Time = 0.058

Courant Number mean: 2.41529e-05 max: 2.46914e-05
smoothSolver:  Solving for Ux, Initial residual = 9.17288e-16, Final residual = 9.17288e-16, No Iterations 0
smoothSolver:  Solving for Uy, Initial residual = 0.0549976, Final residual = 6.48448e-07, No Iterations 14
DICPCG:  Solving for p, Initial residual = 0.0380462, Final residual = 0.00110137, No Iterations 43
time step continuity errors : sum local = 1.44978e-21, global = -2.56747e-23, cumulative = -1.88489e-21
DICPCG:  Solving for p, Initial residual = 0.0375915, Final residual = 9.98434e-07, No Iterations 78
time step continuity errors : sum local = 1.46787e-21, global = -1.298e-25, cumulative = -1.88502e-21
ExecutionTime = 1.28 s  ClockTime = 1 s

Time = 0.059

Courant Number mean: 2.41529e-05 max: 2.46914e-05
smoothSolver:  Solving for Ux, Initial residual = 7.23247e-16, Final residual = 7.23247e-16, No Iterations 0
smoothSolver:  Solving for Uy, Initial residual = 0.0671934, Final residual = 9.93177e-07, No Iterations 14
DICPCG:  Solving for p, Initial residual = 0.0422753, Final residual = 0.00173782, No Iterations 47
time step continuity errors : sum local = 1.44548e-21, global = -5.57199e-23, cumulative = -1.94074e-21
DICPCG:  Solving for p, Initial residual = 0.0345969, Final residual = 8.45065e-07, No Iterations 79
time step continuity errors : sum local = 1.4495e-21, global = -3.25189e-23, cumulative = -1.97326e-21
ExecutionTime = 1.3 s  ClockTime = 1 s

Time = 0.06

Courant Number mean: 2.41529e-05 max: 2.46914e-05
smoothSolver:  Solving for Ux, Initial residual = 6.09959e-16, Final residual = 6.09959e-16, No Iterations 0
smoothSolver:  Solving for Uy, Initial residual = 0.0681396, Final residual = 9.10294e-07, No Iterations 14
DICPCG:  Solving for p, Initial residual = 0.0382514, Final residual = 0.00176744, No Iterations 18
time step continuity errors : sum local = 1.39676e-21, global = -3.03123e-23, cumulative = -2.00357e-21
DICPCG:  Solving for p, Initial residual = 0.0318086, Final residual = 8.66723e-07, No Iterations 79
time step continuity errors : sum local = 1.36812e-21, global = -4.58354e-23, cumulative = -2.0494e-21
ExecutionTime = 1.32 s  ClockTime = 1 s

Time = 0.061

Courant Number mean: 2.41529e-05 max: 2.46914e-05
smoothSolver:  Solving for Ux, Initial residual = 5.3537e-16, Final residual = 5.3537e-16, No Iterations 0
smoothSolver:  Solving for Uy, Initial residual = 0.0525235, Final residual = 9.6658e-07, No Iterations 13
DICPCG:  Solving for p, Initial residual = 0.0333907, Final residual = 0.00160871, No Iterations 16
time step continuity errors : sum local = 1.4293e-21, global = -4.70968e-23, cumulative = -2.0965e-21
DICPCG:  Solving for p, Initial residual = 0.0256846, Final residual = 7.02509e-07, No Iterations 77
time step continuity errors : sum local = 1.41936e-21, global = -3.33874e-23, cumulative = -2.12989e-21
ExecutionTime = 1.33 s  ClockTime = 1 s

Time = 0.062

Courant Number mean: 2.41529e-05 max: 2.46914e-05
smoothSolver:  Solving for Ux, Initial residual = 4.94889e-16, Final residual = 4.94889e-16, No Iterations 0
smoothSolver:  Solving for Uy, Initial residual = 0.0597022, Final residual = 7.88677e-07, No Iterations 14
DICPCG:  Solving for p, Initial residual = 0.0323855, Final residual = 0.0012776, No Iterations 47
time step continuity errors : sum local = 1.4454e-21, global = -2.36515e-23, cumulative = -2.15354e-21
DICPCG:  Solving for p, Initial residual = 0.0291354, Final residual = 9.00191e-07, No Iterations 78
time step continuity errors : sum local = 1.43191e-21, global = -2.99375e-24, cumulative = -2.15653e-21
ExecutionTime = 1.35 s  ClockTime = 1 s

Time = 0.063

Courant Number mean: 2.41529e-05 max: 2.46914e-05
smoothSolver:  Solving for Ux, Initial residual = 4.75305e-16, Final residual = 4.75305e-16, No Iterations 0
smoothSolver:  Solving for Uy, Initial residual = 0.044085, Final residual = 9.42472e-07, No Iterations 13
DICPCG:  Solving for p, Initial residual = 0.0296134, Final residual = 0.00133764, No Iterations 17
time step continuity errors : sum local = 1.41812e-21, global = -4.12655e-23, cumulative = -2.1978e-21
DICPCG:  Solving for p, Initial residual = 0.0238763, Final residual = 9.09873e-07, No Iterations 78
time step continuity errors : sum local = 1.47741e-21, global = -1.23204e-23, cumulative = -2.21012e-21
ExecutionTime = 1.37 s  ClockTime = 1 s

Time = 0.064

Courant Number mean: 2.41529e-05 max: 2.46914e-05
smoothSolver:  Solving for Ux, Initial residual = 4.67425e-16, Final residual = 4.67425e-16, No Iterations 0
smoothSolver:  Solving for Uy, Initial residual = 0.0582507, Final residual = 8.86248e-07, No Iterations 14
DICPCG:  Solving for p, Initial residual = 0.0344547, Final residual = 0.00137811, No Iterations 47
time step continuity errors : sum local = 1.38044e-21, global = -3.73699e-23, cumulative = -2.24749e-21
DICPCG:  Solving for p, Initial residual = 0.0334671, Final residual = 7.57354e-07, No Iterations 80
time step continuity errors : sum local = 1.42987e-21, global = -2.01068e-23, cumulative = -2.2676e-21
ExecutionTime = 1.39 s  ClockTime = 1 s

Time = 0.065

Courant Number mean: 2.41529e-05 max: 2.46914e-05
smoothSolver:  Solving for Ux, Initial residual = 4.52759e-16, Final residual = 4.52759e-16, No Iterations 0
smoothSolver:  Solving for Uy, Initial residual = 0.0561239, Final residual = 4.87121e-07, No Iterations 14
DICPCG:  Solving for p, Initial residual = 0.0313488, Final residual = 0.00114565, No Iterations 7
time step continuity errors : sum local = 1.40002e-21, global = -5.15668e-24, cumulative = -2.27275e-21
DICPCG:  Solving for p, Initial residual = 0.0222132, Final residual = 7.76572e-07, No Iterations 78
time step continuity errors : sum local = 1.35937e-21, global = -2.0976e-23, cumulative = -2.29373e-21
ExecutionTime = 1.4 s  ClockTime = 1 s

Time = 0.066

Courant Number mean: 2.41529e-05 max: 2.46914e-05
smoothSolver:  Solving for Ux, Initial residual = 4.55535e-16, Final residual = 4.55535e-16, No Iterations 0
smoothSolver:  Solving for Uy, Initial residual = 0.0687691, Final residual = 5.0237e-07, No Iterations 15
DICPCG:  Solving for p, Initial residual = 0.0320878, Final residual = 0.00156197, No Iterations 11
time step continuity errors : sum local = 1.35392e-21, global = 4.97581e-24, cumulative = -2.28875e-21
DICPCG:  Solving for p, Initial residual = 0.023819, Final residual = 7.23091e-07, No Iterations 78
time step continuity errors : sum local = 1.38529e-21, global = 1.63952e-23, cumulative = -2.27236e-21
ExecutionTime = 1.42 s  ClockTime = 1 s

Time = 0.067

Courant Number mean: 2.41529e-05 max: 2.46914e-05
smoothSolver:  Solving for Ux, Initial residual = 4.60988e-16, Final residual = 4.60988e-16, No Iterations 0
smoothSolver:  Solving for Uy, Initial residual = 0.0739055, Final residual = 6.29994e-07, No Iterations 15
DICPCG:  Solving for p, Initial residual = 0.0345858, Final residual = 0.00113517, No Iterations 48
time step continuity errors : sum local = 1.43484e-21, global = 3.8379e-24, cumulative = -2.26852e-21
DICPCG:  Solving for p, Initial residual = 0.0310915, Final residual = 8.471e-07, No Iterations 79
time step continuity errors : sum local = 1.37374e-21, global = -2.9291e-23, cumulative = -2.29781e-21
ExecutionTime = 1.44 s  ClockTime = 1 s

Time = 0.068

Courant Number mean: 2.41529e-05 max: 2.46914e-05
smoothSolver:  Solving for Ux, Initial residual = 4.47065e-16, Final residual = 4.47065e-16, No Iterations 0
smoothSolver:  Solving for Uy, Initial residual = 0.0461074, Final residual = 9.00959e-07, No Iterations 13
DICPCG:  Solving for p, Initial residual = 0.0294218, Final residual = 0.00139666, No Iterations 45
time step continuity errors : sum local = 1.36887e-21, global = 1.23831e-23, cumulative = -2.28543e-21
DICPCG:  Solving for p, Initial residual = 0.0319596, Final residual = 5.3494e-07, No Iterations 78
time step continuity errors : sum local = 1.34981e-21, global = 9.09929e-25, cumulative = -2.28452e-21
ExecutionTime = 1.46 s  ClockTime = 1 s

Time = 0.069

Courant Number mean: 2.41529e-05 max: 2.46914e-05
smoothSolver:  Solving for Ux, Initial residual = 4.50595e-16, Final residual = 4.50595e-16, No Iterations 0
smoothSolver:  Solving for Uy, Initial residual = 0.0542217, Final residual = 8.0671e-07, No Iterations 14
DICPCG:  Solving for p, Initial residual = 0.0368375, Final residual = 0.00123768, No Iterations 47
time step continuity errors : sum local = 1.34915e-21, global = -3.90095e-23, cumulative = -2.32353e-21
DICPCG:  Solving for p, Initial residual = 0.0283573, Final residual = 8.40185e-07, No Iterations 79
time step continuity errors : sum local = 1.31564e-21, global = -3.50456e-23, cumulative = -2.35857e-21
ExecutionTime = 1.47 s  ClockTime = 1 s

Time = 0.07

Courant Number mean: 2.41529e-05 max: 2.46914e-05
smoothSolver:  Solving for Ux, Initial residual = 4.57163e-16, Final residual = 4.57163e-16, No Iterations 0
smoothSolver:  Solving for Uy, Initial residual = 0.0559977, Final residual = 6.838e-07, No Iterations 14
DICPCG:  Solving for p, Initial residual = 0.0312064, Final residual = 0.00142849, No Iterations 46
time step continuity errors : sum local = 1.38071e-21, global = -5.88705e-23, cumulative = -2.41744e-21
DICPCG:  Solving for p, Initial residual = 0.0275579, Final residual = 9.34905e-07, No Iterations 78
time step continuity errors : sum local = 1.41183e-21, global = -5.15557e-23, cumulative = -2.469e-21
ExecutionTime = 1.49 s  ClockTime = 1 s

Time = 0.071

Courant Number mean: 2.41529e-05 max: 2.46914e-05
smoothSolver:  Solving for Ux, Initial residual = 4.583e-16, Final residual = 4.583e-16, No Iterations 0
smoothSolver:  Solving for Uy, Initial residual = 0.0431344, Final residual = 5.50641e-07, No Iterations 14
DICPCG:  Solving for p, Initial residual = 0.0272712, Final residual = 0.00130316, No Iterations 6
time step continuity errors : sum local = 1.40283e-21, global = -2.20059e-23, cumulative = -2.49101e-21
DICPCG:  Solving for p, Initial residual = 0.0219593, Final residual = 9.27425e-07, No Iterations 69
time step continuity errors : sum local = 1.41254e-21, global = -5.90606e-23, cumulative = -2.55007e-21
ExecutionTime = 1.51 s  ClockTime = 1 s

Time = 0.072

Courant Number mean: 2.41529e-05 max: 2.46914e-05
smoothSolver:  Solving for Ux, Initial residual = 4.5772e-16, Final residual = 4.5772e-16, No Iterations 0
smoothSolver:  Solving for Uy, Initial residual = 0.0473592, Final residual = 6.3189e-07, No Iterations 14
DICPCG:  Solving for p, Initial residual = 0.029018, Final residual = 0.00136266, No Iterations 45
time step continuity errors : sum local = 1.39222e-21, global = -6.4564e-23, cumulative = -2.61463e-21
DICPCG:  Solving for p, Initial residual = 0.0277158, Final residual = 8.7447e-07, No Iterations 78
time step continuity errors : sum local = 1.37624e-21, global = -2.36853e-23, cumulative = -2.63832e-21
ExecutionTime = 1.53 s  ClockTime = 1 s

Time = 0.073

Courant Number mean: 2.41529e-05 max: 2.46914e-05
smoothSolver:  Solving for Ux, Initial residual = 4.58496e-16, Final residual = 4.58496e-16, No Iterations 0
smoothSolver:  Solving for Uy, Initial residual = 0.0408749, Final residual = 9.2924e-07, No Iterations 13
DICPCG:  Solving for p, Initial residual = 0.0290717, Final residual = 0.00134788, No Iterations 14
time step continuity errors : sum local = 1.36935e-21, global = -9.45628e-24, cumulative = -2.64777e-21
DICPCG:  Solving for p, Initial residual = 0.0212903, Final residual = 7.60606e-07, No Iterations 77
time step continuity errors : sum local = 1.37978e-21, global = -2.45782e-23, cumulative = -2.67235e-21
ExecutionTime = 1.54 s  ClockTime = 1 s

Time = 0.074

Courant Number mean: 2.41529e-05 max: 2.46914e-05
smoothSolver:  Solving for Ux, Initial residual = 4.56474e-16, Final residual = 4.56474e-16, No Iterations 0
smoothSolver:  Solving for Uy, Initial residual = 0.0424046, Final residual = 5.52322e-07, No Iterations 14
DICPCG:  Solving for p, Initial residual = 0.0264057, Final residual = 0.00122037, No Iterations 8
time step continuity errors : sum local = 1.31842e-21, global = -2.64362e-23, cumulative = -2.69879e-21
DICPCG:  Solving for p, Initial residual = 0.0201206, Final residual = 7.17201e-07, No Iterations 78
time step continuity errors : sum local = 1.3673e-21, global = -2.28637e-23, cumulative = -2.72165e-21
ExecutionTime = 1.56 s  ClockTime = 1 s

Time = 0.075

Courant Number mean: 2.41529e-05 max: 2.46914e-05
smoothSolver:  Solving for Ux, Initial residual = 4.56125e-16, Final residual = 4.56125e-16, No Iterations 0
smoothSolver:  Solving for Uy, Initial residual = 0.0418702, Final residual = 5.16478e-07, No Iterations 14
DICPCG:  Solving for p, Initial residual = 0.027362, Final residual = 0.00108602, No Iterations 46
time step continuity errors : sum local = 1.33527e-21, global = -6.78329e-23, cumulative = -2.78948e-21
DICPCG:  Solving for p, Initial residual = 0.0225141, Final residual = 8.22501e-07, No Iterations 77
time step continuity errors : sum local = 1.35705e-21, global = -4.45374e-24, cumulative = -2.79394e-21
ExecutionTime = 1.57 s  ClockTime = 1 s

Time = 0.076

Courant Number mean: 2.41529e-05 max: 2.46914e-05
smoothSolver:  Solving for Ux, Initial residual = 4.61469e-16, Final residual = 4.61469e-16, No Iterations 0
smoothSolver:  Solving for Uy, Initial residual = 0.0664493, Final residual = 5.28746e-07, No Iterations 15
DICPCG:  Solving for p, Initial residual = 0.0352841, Final residual = 0.00142504, No Iterations 47
time step continuity errors : sum local = 1.40162e-21, global = -4.5685e-23, cumulative = -2.83962e-21
DICPCG:  Solving for p, Initial residual = 0.0315914, Final residual = 7.94504e-07, No Iterations 79
time step continuity errors : sum local = 1.43717e-21, global = -3.21689e-23, cumulative = -2.87179e-21
ExecutionTime = 1.59 s  ClockTime = 1 s

Time = 0.077

Courant Number mean: 2.41529e-05 max: 2.46914e-05
smoothSolver:  Solving for Ux, Initial residual = 4.60671e-16, Final residual = 4.60671e-16, No Iterations 0
smoothSolver:  Solving for Uy, Initial residual = 0.0479052, Final residual = 6.2891e-07, No Iterations 14
DICPCG:  Solving for p, Initial residual = 0.0316742, Final residual = 0.00133049, No Iterations 43
time step continuity errors : sum local = 1.43865e-21, global = -2.92728e-23, cumulative = -2.90106e-21
DICPCG:  Solving for p, Initial residual = 0.0238562, Final residual = 8.71292e-07, No Iterations 78
time step continuity errors : sum local = 1.42043e-21, global = -1.83427e-23, cumulative = -2.91941e-21
ExecutionTime = 1.61 s  ClockTime = 1 s

Time = 0.078

Courant Number mean: 2.41529e-05 max: 2.46914e-05
smoothSolver:  Solving for Ux, Initial residual = 4.61775e-16, Final residual = 4.61775e-16, No Iterations 0
smoothSolver:  Solving for Uy, Initial residual = 0.0397147, Final residual = 5.09789e-07, No Iterations 14
DICPCG:  Solving for p, Initial residual = 0.0258854, Final residual = 0.00114512, No Iterations 46
time step continuity errors : sum local = 1.44153e-21, global = -5.11746e-23, cumulative = -2.97058e-21
DICPCG:  Solving for p, Initial residual = 0.0228037, Final residual = 9.04322e-07, No Iterations 79
time step continuity errors : sum local = 1.44082e-21, global = -4.02044e-23, cumulative = -3.01078e-21
ExecutionTime = 1.63 s  ClockTime = 1 s

Time = 0.079

Courant Number mean: 2.41529e-05 max: 2.46914e-05
smoothSolver:  Solving for Ux, Initial residual = 4.63622e-16, Final residual = 4.63622e-16, No Iterations 0
smoothSolver:  Solving for Uy, Initial residual = 0.0304233, Final residual = 7.158e-07, No Iterations 13
DICPCG:  Solving for p, Initial residual = 0.0213021, Final residual = 0.000715426, No Iterations 43
time step continuity errors : sum local = 1.43374e-21, global = -5.41931e-23, cumulative = -3.06498e-21
DICPCG:  Solving for p, Initial residual = 0.0212012, Final residual = 8.66779e-07, No Iterations 77
time step continuity errors : sum local = 1.46987e-21, global = -4.55584e-23, cumulative = -3.11054e-21
ExecutionTime = 1.65 s  ClockTime = 1 s

Time = 0.08

Courant Number mean: 2.41529e-05 max: 2.46914e-05
smoothSolver:  Solving for Ux, Initial residual = 4.57972e-16, Final residual = 4.57972e-16, No Iterations 0
smoothSolver:  Solving for Uy, Initial residual = 0.0283499, Final residual = 5.28078e-07, No Iterations 13
DICPCG:  Solving for p, Initial residual = 0.0226064, Final residual = 0.000939824, No Iterations 43
time step continuity errors : sum local = 1.41478e-21, global = -1.45539e-23, cumulative = -3.12509e-21
DICPCG:  Solving for p, Initial residual = 0.0241969, Final residual = 6.14026e-07, No Iterations 77
time step continuity errors : sum local = 1.44663e-21, global = -3.34671e-23, cumulative = -3.15856e-21
ExecutionTime = 1.67 s  ClockTime = 1 s

Time = 0.081

Courant Number mean: 2.41529e-05 max: 2.46914e-05
smoothSolver:  Solving for Ux, Initial residual = 4.63349e-16, Final residual = 4.63349e-16, No Iterations 0
smoothSolver:  Solving for Uy, Initial residual = 0.0337636, Final residual = 5.22801e-07, No Iterations 13
DICPCG:  Solving for p, Initial residual = 0.0258227, Final residual = 0.00123014, No Iterations 45
time step continuity errors : sum local = 1.41919e-21, global = -4.54557e-23, cumulative = -3.20401e-21
DICPCG:  Solving for p, Initial residual = 0.0221558, Final residual = 7.61134e-07, No Iterations 77
time step continuity errors : sum local = 1.41765e-21, global = -2.42042e-23, cumulative = -3.22822e-21
ExecutionTime = 1.68 s  ClockTime = 1 s

Time = 0.082

Courant Number mean: 2.41529e-05 max: 2.46914e-05
smoothSolver:  Solving for Ux, Initial residual = 4.55699e-16, Final residual = 4.55699e-16, No Iterations 0
smoothSolver:  Solving for Uy, Initial residual = 0.0328449, Final residual = 6.01867e-07, No Iterations 13
DICPCG:  Solving for p, Initial residual = 0.024901, Final residual = 0.000718362, No Iterations 46
time step continuity errors : sum local = 1.42959e-21, global = -8.88974e-24, cumulative = -3.23711e-21
DICPCG:  Solving for p, Initial residual = 0.0236683, Final residual = 8.01335e-07, No Iterations 77
time step continuity errors : sum local = 1.44341e-21, global = -4.01676e-23, cumulative = -3.27727e-21
ExecutionTime = 1.7 s  ClockTime = 1 s

Time = 0.083

Courant Number mean: 2.41529e-05 max: 2.46914e-05
smoothSolver:  Solving for Ux, Initial residual = 4.60715e-16, Final residual = 4.60715e-16, No Iterations 0
smoothSolver:  Solving for Uy, Initial residual = 0.0453313, Final residual = 6.34289e-07, No Iterations 14
DICPCG:  Solving for p, Initial residual = 0.0283551, Final residual = 0.00121689, No Iterations 46
time step continuity errors : sum local = 1.4395e-21, global = -4.80188e-23, cumulative = -3.32529e-21
DICPCG:  Solving for p, Initial residual = 0.0284283, Final residual = 8.36662e-07, No Iterations 80
time step continuity errors : sum local = 1.44011e-21, global = -3.55235e-23, cumulative = -3.36082e-21
ExecutionTime = 1.72 s  ClockTime = 1 s

Time = 0.084

Courant Number mean: 2.41529e-05 max: 2.46914e-05
smoothSolver:  Solving for Ux, Initial residual = 4.52442e-16, Final residual = 4.52442e-16, No Iterations 0
smoothSolver:  Solving for Uy, Initial residual = 0.0443292, Final residual = 5.44741e-07, No Iterations 14
DICPCG:  Solving for p, Initial residual = 0.0308509, Final residual = 0.00147539, No Iterations 46
time step continuity errors : sum local = 1.47485e-21, global = -7.1862e-23, cumulative = -3.43268e-21
DICPCG:  Solving for p, Initial residual = 0.024974, Final residual = 8.27137e-07, No Iterations 78
time step continuity errors : sum local = 1.44987e-21, global = -5.15725e-23, cumulative = -3.48425e-21
ExecutionTime = 1.74 s  ClockTime = 1 s

Time = 0.085

Courant Number mean: 2.41529e-05 max: 2.46914e-05
smoothSolver:  Solving for Ux, Initial residual = 4.53677e-16, Final residual = 4.53677e-16, No Iterations 0
smoothSolver:  Solving for Uy, Initial residual = 0.0298999, Final residual = 5.05274e-07, No Iterations 13
DICPCG:  Solving for p, Initial residual = 0.0248852, Final residual = 0.00116015, No Iterations 10
time step continuity errors : sum local = 1.4631e-21, global = -1.21889e-24, cumulative = -3.48547e-21
DICPCG:  Solving for p, Initial residual = 0.0206247, Final residual = 9.34437e-07, No Iterations 70
time step continuity errors : sum local = 1.42937e-21, global = -3.22752e-23, cumulative = -3.51775e-21
ExecutionTime = 1.76 s  ClockTime = 1 s

Time = 0.086

Courant Number mean: 2.41529e-05 max: 2.46914e-05
smoothSolver:  Solving for Ux, Initial residual = 4.53961e-16, Final residual = 4.53961e-16, No Iterations 0
smoothSolver:  Solving for Uy, Initial residual = 0.0653396, Final residual = 5.10295e-07, No Iterations 15
DICPCG:  Solving for p, Initial residual = 0.0379496, Final residual = 0.0017796, No Iterations 47
time step continuity errors : sum local = 1.5133e-21, global = -4.48108e-23, cumulative = -3.56256e-21
DICPCG:  Solving for p, Initial residual = 0.0339572, Final residual = 7.78587e-07, No Iterations 79
time step continuity errors : sum local = 1.46562e-21, global = -6.1205e-23, cumulative = -3.62376e-21
ExecutionTime = 1.77 s  ClockTime = 1 s

Time = 0.087

Courant Number mean: 2.41529e-05 max: 2.46914e-05
smoothSolver:  Solving for Ux, Initial residual = 4.52322e-16, Final residual = 4.52322e-16, No Iterations 0
smoothSolver:  Solving for Uy, Initial residual = 0.0387092, Final residual = 7.62985e-07, No Iterations 13
DICPCG:  Solving for p, Initial residual = 0.0277809, Final residual = 0.00121302, No Iterations 22
time step continuity errors : sum local = 1.50063e-21, global = -4.18227e-23, cumulative = -3.66558e-21
DICPCG:  Solving for p, Initial residual = 0.0239608, Final residual = 9.04481e-07, No Iterations 77
time step continuity errors : sum local = 1.4795e-21, global = -5.54602e-23, cumulative = -3.72104e-21
ExecutionTime = 1.79 s  ClockTime = 1 s

Time = 0.088

Courant Number mean: 2.41529e-05 max: 2.46914e-05
smoothSolver:  Solving for Ux, Initial residual = 4.46824e-16, Final residual = 4.46824e-16, No Iterations 0
smoothSolver:  Solving for Uy, Initial residual = 0.0293212, Final residual = 4.85565e-07, No Iterations 13
DICPCG:  Solving for p, Initial residual = 0.0257823, Final residual = 0.00108429, No Iterations 43
time step continuity errors : sum local = 1.46512e-21, global = -1.86004e-23, cumulative = -3.73964e-21
DICPCG:  Solving for p, Initial residual = 0.0227154, Final residual = 9.80589e-07, No Iterations 78
time step continuity errors : sum local = 1.44926e-21, global = -2.38762e-23, cumulative = -3.76352e-21
ExecutionTime = 1.81 s  ClockTime = 1 s

Time = 0.089

Courant Number mean: 2.41529e-05 max: 2.46914e-05
smoothSolver:  Solving for Ux, Initial residual = 4.47972e-16, Final residual = 4.47972e-16, No Iterations 0
smoothSolver:  Solving for Uy, Initial residual = 0.0321264, Final residual = 5.38509e-07, No Iterations 13
DICPCG:  Solving for p, Initial residual = 0.0251467, Final residual = 0.00125462, No Iterations 42
time step continuity errors : sum local = 1.41409e-21, global = -3.69469e-23, cumulative = -3.80047e-21
DICPCG:  Solving for p, Initial residual = 0.0237918, Final residual = 8.04588e-07, No Iterations 77
time step continuity errors : sum local = 1.45068e-21, global = -5.75672e-23, cumulative = -3.85804e-21
ExecutionTime = 1.83 s  ClockTime = 2 s

Time = 0.09

Courant Number mean: 2.41529e-05 max: 2.46914e-05
smoothSolver:  Solving for Ux, Initial residual = 4.50573e-16, Final residual = 4.50573e-16, No Iterations 0
smoothSolver:  Solving for Uy, Initial residual = 0.0389632, Final residual = 8.45419e-07, No Iterations 13
DICPCG:  Solving for p, Initial residual = 0.0268507, Final residual = 0.00087984, No Iterations 46
time step continuity errors : sum local = 1.43541e-21, global = -3.97262e-23, cumulative = -3.89776e-21
DICPCG:  Solving for p, Initial residual = 0.0268172, Final residual = 9.08507e-07, No Iterations 77
time step continuity errors : sum local = 1.44717e-21, global = -2.65375e-23, cumulative = -3.9243e-21
ExecutionTime = 1.85 s  ClockTime = 2 s

Time = 0.091

Courant Number mean: 2.41529e-05 max: 2.46914e-05
smoothSolver:  Solving for Ux, Initial residual = 4.53753e-16, Final residual = 4.53753e-16, No Iterations 0
smoothSolver:  Solving for Uy, Initial residual = 0.0500916, Final residual = 7.52341e-07, No Iterations 14
DICPCG:  Solving for p, Initial residual = 0.0316085, Final residual = 0.00117358, No Iterations 47
time step continuity errors : sum local = 1.43717e-21, global = -4.40511e-23, cumulative = -3.96835e-21
DICPCG:  Solving for p, Initial residual = 0.0258751, Final residual = 9.81217e-07, No Iterations 79
time step continuity errors : sum local = 1.46025e-21, global = -5.85385e-23, cumulative = -4.02689e-21
ExecutionTime = 1.87 s  ClockTime = 2 s

Time = 0.092

Courant Number mean: 2.41529e-05 max: 2.46914e-05
smoothSolver:  Solving for Ux, Initial residual = 4.54682e-16, Final residual = 4.54682e-16, No Iterations 0
smoothSolver:  Solving for Uy, Initial residual = 0.0291665, Final residual = 5.15341e-07, No Iterations 13
DICPCG:  Solving for p, Initial residual = 0.0273249, Final residual = 0.00124284, No Iterations 18
time step continuity errors : sum local = 1.42415e-21, global = -2.47259e-23, cumulative = -4.05161e-21
DICPCG:  Solving for p, Initial residual = 0.0202263, Final residual = 9.29614e-07, No Iterations 76
time step continuity errors : sum local = 1.44206e-21, global = -8.85143e-25, cumulative = -4.0525e-21
ExecutionTime = 1.88 s  ClockTime = 2 s

Time = 0.093

Courant Number mean: 2.41529e-05 max: 2.46914e-05
smoothSolver:  Solving for Ux, Initial residual = 4.55852e-16, Final residual = 4.55852e-16, No Iterations 0
smoothSolver:  Solving for Uy, Initial residual = 0.0468955, Final residual = 6.80777e-07, No Iterations 14
DICPCG:  Solving for p, Initial residual = 0.0284406, Final residual = 0.00137872, No Iterations 23
time step continuity errors : sum local = 1.38087e-21, global = -3.65288e-23, cumulative = -4.08903e-21
DICPCG:  Solving for p, Initial residual = 0.0260272, Final residual = 8.85433e-07, No Iterations 78
time step continuity errors : sum local = 1.39498e-21, global = -9.77764e-24, cumulative = -4.09881e-21
ExecutionTime = 1.9 s  ClockTime = 2 s

Time = 0.094

Courant Number mean: 2.41529e-05 max: 2.46914e-05
smoothSolver:  Solving for Ux, Initial residual = 4.49447e-16, Final residual = 4.49447e-16, No Iterations 0
smoothSolver:  Solving for Uy, Initial residual = 0.0372501, Final residual = 5.66468e-07, No Iterations 13
DICPCG:  Solving for p, Initial residual = 0.0281174, Final residual = 0.0012952, No Iterations 44
time step continuity errors : sum local = 1.36073e-21, global = -3.66586e-23, cumulative = -4.13546e-21
DICPCG:  Solving for p, Initial residual = 0.0217819, Final residual = 7.88988e-07, No Iterations 77
time step continuity errors : sum local = 1.35019e-21, global = -4.08278e-23, cumulative = -4.17629e-21
ExecutionTime = 1.92 s  ClockTime = 2 s

Time = 0.095

Courant Number mean: 2.41529e-05 max: 2.46914e-05
smoothSolver:  Solving for Ux, Initial residual = 4.59185e-16, Final residual = 4.59185e-16, No Iterations 0
smoothSolver:  Solving for Uy, Initial residual = 0.0462715, Final residual = 6.41091e-07, No Iterations 14
DICPCG:  Solving for p, Initial residual = 0.0262404, Final residual = 0.00130468, No Iterations 44
time step continuity errors : sum local = 1.33844e-21, global = -1.83344e-23, cumulative = -4.19463e-21
DICPCG:  Solving for p, Initial residual = 0.0240805, Final residual = 5.89933e-07, No Iterations 78
time step continuity errors : sum local = 1.33628e-21, global = -4.30732e-23, cumulative = -4.2377e-21
ExecutionTime = 1.94 s  ClockTime = 2 s

Time = 0.096

Courant Number mean: 2.41529e-05 max: 2.46914e-05
smoothSolver:  Solving for Ux, Initial residual = 4.53633e-16, Final residual = 4.53633e-16, No Iterations 0
smoothSolver:  Solving for Uy, Initial residual = 0.0476972, Final residual = 5.6205e-07, No Iterations 14
DICPCG:  Solving for p, Initial residual = 0.0286858, Final residual = 0.0010424, No Iterations 43
time step continuity errors : sum local = 1.35237e-21, global = -4.68507e-23, cumulative = -4.28455e-21
DICPCG:  Solving for p, Initial residual = 0.0276568, Final residual = 9.81195e-07, No Iterations 77
time step continuity errors : sum local = 1.39166e-21, global = -2.79425e-23, cumulative = -4.31249e-21
ExecutionTime = 1.95 s  ClockTime = 2 s

Time = 0.097

Courant Number mean: 2.41529e-05 max: 2.46914e-05
smoothSolver:  Solving for Ux, Initial residual = 4.52529e-16, Final residual = 4.52529e-16, No Iterations 0
smoothSolver:  Solving for Uy, Initial residual = 0.037055, Final residual = 6.51138e-07, No Iterations 13
DICPCG:  Solving for p, Initial residual = 0.0261326, Final residual = 0.00124378, No Iterations 16
time step continuity errors : sum local = 1.36411e-21, global = -3.10269e-23, cumulative = -4.34352e-21
DICPCG:  Solving for p, Initial residual = 0.0216379, Final residual = 8.93705e-07, No Iterations 77
time step continuity errors : sum local = 1.43052e-21, global = -1.07206e-23, cumulative = -4.35424e-21
ExecutionTime = 1.97 s  ClockTime = 2 s

Time = 0.098

Courant Number mean: 2.41529e-05 max: 2.46914e-05
smoothSolver:  Solving for Ux, Initial residual = 4.5572e-16, Final residual = 4.5572e-16, No Iterations 0
smoothSolver:  Solving for Uy, Initial residual = 0.0515131, Final residual = 7.83889e-07, No Iterations 14
DICPCG:  Solving for p, Initial residual = 0.0284509, Final residual = 0.00134502, No Iterations 46
time step continuity errors : sum local = 1.40057e-21, global = -5.88454e-23, cumulative = -4.41309e-21
DICPCG:  Solving for p, Initial residual = 0.0261552, Final residual = 7.03923e-07, No Iterations 79
time step continuity errors : sum local = 1.43607e-21, global = -4.27436e-23, cumulative = -4.45583e-21
ExecutionTime = 1.99 s  ClockTime = 2 s

Time = 0.099

Courant Number mean: 2.41529e-05 max: 2.46914e-05
smoothSolver:  Solving for Ux, Initial residual = 4.59655e-16, Final residual = 4.59655e-16, No Iterations 0
smoothSolver:  Solving for Uy, Initial residual = 0.0562957, Final residual = 8.58788e-07, No Iterations 14
DICPCG:  Solving for p, Initial residual = 0.0345824, Final residual = 0.00172225, No Iterations 9
time step continuity errors : sum local = 1.47696e-21, global = -4.5022e-23, cumulative = -4.50085e-21
DICPCG:  Solving for p, Initial residual = 0.0251876, Final residual = 8.97975e-07, No Iterations 78
time step continuity errors : sum local = 1.45008e-21, global = -2.93704e-23, cumulative = -4.53022e-21
ExecutionTime = 2 s  ClockTime = 2 s

Time = 0.1

Courant Number mean: 2.41529e-05 max: 2.46914e-05
smoothSolver:  Solving for Ux, Initial residual = 4.50988e-16, Final residual = 4.50988e-16, No Iterations 0
smoothSolver:  Solving for Uy, Initial residual = 0.0370714, Final residual = 6.74266e-07, No Iterations 13
DICPCG:  Solving for p, Initial residual = 0.0256295, Final residual = 0.00120951, No Iterations 19
time step continuity errors : sum local = 1.46178e-21, global = -3.30303e-23, cumulative = -4.56325e-21
DICPCG:  Solving for p, Initial residual = 0.0229511, Final residual = 6.53982e-07, No Iterations 78
time step continuity errors : sum local = 1.46544e-21, global = -2.50314e-23, cumulative = -4.58828e-21
ExecutionTime = 2.04 s  ClockTime = 2 s

End

