/*---------------------------------------------------------------------------*\
  =========                 |
  \\      /  F ield         | OpenFOAM: The Open Source CFD Toolbox
   \\    /   O peration     | Website:  https://openfoam.org
    \\  /    A nd           | Version:  7
     \\/     M anipulation  |
\*---------------------------------------------------------------------------*/
Build  : 7-7dc73e32f723
Exec   : /home/anoldfriend/OpenFOAM/anoldfriend-7/platforms/linux64GccDPInt32Debug/bin/reactingDBSFoam
Date   : Dec 05 2020
Time   : 16:58:05
Host   : "DESKTOP-VSJ4QNK"
PID    : 37654
I/O    : uncollated
Case   : /home/anoldfriend/OpenFOAM/anoldfriend-7/applications/test/reactingDBS/BernardCells
nProcs : 1
sigFpe : Enabling floating point exception trapping (FOAM_SIGFPE).
fileModificationChecking : Monitoring run-time modified files using timeStampMaster (fileModificationSkew 10)
allowSystemOperations : Allowing user-supplied system call operations

// * * * * * * * * * * * * * * * * * * * * * * * * * * * * * * * * * * * * * //
Create time

Create mesh for time = 0


PIMPLE: No convergence criteria found


PIMPLE: Operating solver in transient mode with 1 outer corrector
PIMPLE: Operating solver in PISO mode


Reading const solid thermo-physical transport properties

Reading fluid thermo-physical properties by thermo model

Selecting thermodynamics package 
{
    type            heRhoThermo;
    mixture         pureMixture;
    transport       const;
    thermo          eConst;
    equationOfState Boussinesq;
    specie          specie;
    energy          sensibleInternalEnergy;
}

Reading field U


Reading g

Reading hRef
Calculating field g.h

Reading field p_rgh

Creating field dpdt

Creating field kinetic energy K

Reading porous medium transportProperties

Reading field porosity 

create permeability field

Reading/calculating face flux field phi

calculating face flux field phi in porous medium

create rhofEps 
store rhofEps old field 
create effRhosCpsByCpvf
store effRhosCpsByCpvf old field 
Radiation model not active: radiationProperties not found
Selecting radiationModel none
No finite volume options present
Courant Number mean: 0.000988889 max: 0.001

Starting time loop

streamLine streamlines:
    automatic track length specified through number of sub cycles : 5

Courant Number mean: 0.000988889 max: 0.001
Time = 1

diagonal:  Solving for rho, Initial residual = 0, Final residual = 0, No Iterations 0
DILUPBiCGStab:  Solving for Ux, Initial residual = 1, Final residual = 3.55922e-09, No Iterations 2
DILUPBiCGStab:  Solving for Uy, Initial residual = 1, Final residual = 9.53286e-10, No Iterations 2
DILUPBiCGStab:  Solving for e, Initial residual = 1, Final residual = 1.67731e-09, No Iterations 2
GAMG:  Solving for p_rgh, Initial residual = 0.94023, Final residual = 0.00876735, No Iterations 4
diagonal:  Solving for rho, Initial residual = 0, Final residual = 0, No Iterations 0
time step continuity errors : sum local = 0.214987, global = 0.000133357, cumulative = 0.000133357
GAMG:  Solving for p_rgh, Initial residual = 0.954254, Final residual = 2.72481e-09, No Iterations 14
diagonal:  Solving for rho, Initial residual = 0, Final residual = 0, No Iterations 0
time step continuity errors : sum local = 0.000133374, global = 0.000133357, cumulative = 0.000266713
ExecutionTime = 0.38 s  ClockTime = 1 s

Courant Number mean: 0.0919463 max: 1.14281
Time = 2

diagonal:  Solving for rho, Initial residual = 0, Final residual = 0, No Iterations 0
DILUPBiCGStab:  Solving for Ux, Initial residual = 0.841229, Final residual = 3.41304e-10, No Iterations 3
DILUPBiCGStab:  Solving for Uy, Initial residual = 0.811537, Final residual = 7.13702e-10, No Iterations 3
DILUPBiCGStab:  Solving for e, Initial residual = 0.292497, Final residual = 6.28204e-09, No Iterations 2
GAMG:  Solving for p_rgh, Initial residual = 0.680521, Final residual = 0.00266796, No Iterations 3
diagonal:  Solving for rho, Initial residual = 0, Final residual = 0, No Iterations 0
time step continuity errors : sum local = 0.000869279, global = 1.1669e-05, cumulative = 0.000278382
GAMG:  Solving for p_rgh, Initial residual = 0.413303, Final residual = 4.85273e-09, No Iterations 10
diagonal:  Solving for rho, Initial residual = 0, Final residual = 0, No Iterations 0
time step continuity errors : sum local = 1.16698e-05, global = 1.1669e-05, cumulative = 0.000290051
ExecutionTime = 0.43 s  ClockTime = 1 s

Courant Number mean: 0.0766789 max: 0.96656
Time = 3

diagonal:  Solving for rho, Initial residual = 0, Final residual = 0, No Iterations 0
DILUPBiCGStab:  Solving for Ux, Initial residual = 0.110744, Final residual = 1.40162e-10, No Iterations 3
DILUPBiCGStab:  Solving for Uy, Initial residual = 0.340139, Final residual = 6.55025e-10, No Iterations 3
DILUPBiCGStab:  Solving for e, Initial residual = 0.141878, Final residual = 2.20935e-09, No Iterations 2
GAMG:  Solving for p_rgh, Initial residual = 0.60343, Final residual = 0.0016362, No Iterations 2
diagonal:  Solving for rho, Initial residual = 0, Final residual = 0, No Iterations 0
time step continuity errors : sum local = 0.00013482, global = 1.06386e-05, cumulative = 0.00030069
GAMG:  Solving for p_rgh, Initial residual = 0.157214, Final residual = 2.13674e-09, No Iterations 9
diagonal:  Solving for rho, Initial residual = 0, Final residual = 0, No Iterations 0
time step continuity errors : sum local = 1.06387e-05, global = 1.06386e-05, cumulative = 0.000311328
ExecutionTime = 0.48 s  ClockTime = 1 s

Courant Number mean: 0.0659804 max: 0.786161
Time = 4

diagonal:  Solving for rho, Initial residual = 0, Final residual = 0, No Iterations 0
DILUPBiCGStab:  Solving for Ux, Initial residual = 0.0958939, Final residual = 5.68812e-09, No Iterations 2
DILUPBiCGStab:  Solving for Uy, Initial residual = 0.189498, Final residual = 1.60042e-09, No Iterations 3
DILUPBiCGStab:  Solving for e, Initial residual = 0.0901683, Final residual = 8.54264e-10, No Iterations 2
GAMG:  Solving for p_rgh, Initial residual = 0.455641, Final residual = 0.00122142, No Iterations 2
diagonal:  Solving for rho, Initial residual = 0, Final residual = 0, No Iterations 0
time step continuity errors : sum local = 4.12406e-05, global = 9.27134e-06, cumulative = 0.0003206
GAMG:  Solving for p_rgh, Initial residual = 0.0701848, Final residual = 1.39615e-09, No Iterations 9
diagonal:  Solving for rho, Initial residual = 0, Final residual = 0, No Iterations 0
time step continuity errors : sum local = 9.27136e-06, global = 9.27134e-06, cumulative = 0.000329871
ExecutionTime = 0.52 s  ClockTime = 1 s

Courant Number mean: 0.0572098 max: 0.641903
Time = 5

diagonal:  Solving for rho, Initial residual = 0, Final residual = 0, No Iterations 0
DILUPBiCGStab:  Solving for Ux, Initial residual = 0.0815, Final residual = 3.26778e-09, No Iterations 2
DILUPBiCGStab:  Solving for Uy, Initial residual = 0.149088, Final residual = 7.23538e-09, No Iterations 2
DILUPBiCGStab:  Solving for e, Initial residual = 0.0646183, Final residual = 3.8262e-10, No Iterations 2
GAMG:  Solving for p_rgh, Initial residual = 0.287248, Final residual = 0.00180066, No Iterations 2
diagonal:  Solving for rho, Initial residual = 0, Final residual = 0, No Iterations 0
time step continuity errors : sum local = 4.30606e-05, global = 8.17359e-06, cumulative = 0.000338045
GAMG:  Solving for p_rgh, Initial residual = 0.0328778, Final residual = 9.37427e-09, No Iterations 8
diagonal:  Solving for rho, Initial residual = 0, Final residual = 0, No Iterations 0
time step continuity errors : sum local = 8.17375e-06, global = 8.17359e-06, cumulative = 0.000346218
ExecutionTime = 0.57 s  ClockTime = 1 s

Courant Number mean: 0.0506259 max: 0.540675
Time = 6

diagonal:  Solving for rho, Initial residual = 0, Final residual = 0, No Iterations 0
DILUPBiCGStab:  Solving for Ux, Initial residual = 0.0728577, Final residual = 2.25291e-09, No Iterations 2
DILUPBiCGStab:  Solving for Uy, Initial residual = 0.1287, Final residual = 1.48709e-09, No Iterations 3
DILUPBiCGStab:  Solving for e, Initial residual = 0.0495336, Final residual = 2.16954e-10, No Iterations 2
GAMG:  Solving for p_rgh, Initial residual = 0.162343, Final residual = 0.000546889, No Iterations 3
diagonal:  Solving for rho, Initial residual = 0, Final residual = 0, No Iterations 0
time step continuity errors : sum local = 1.78671e-05, global = 7.29248e-06, cumulative = 0.000353511
GAMG:  Solving for p_rgh, Initial residual = 0.0180511, Final residual = 8.0682e-09, No Iterations 8
diagonal:  Solving for rho, Initial residual = 0, Final residual = 0, No Iterations 0
time step continuity errors : sum local = 7.29262e-06, global = 7.29248e-06, cumulative = 0.000360803
ExecutionTime = 0.62 s  ClockTime = 1 s

Courant Number mean: 0.0454837 max: 0.498741
Time = 7

diagonal:  Solving for rho, Initial residual = 0, Final residual = 0, No Iterations 0
DILUPBiCGStab:  Solving for Ux, Initial residual = 0.0656477, Final residual = 1.68707e-09, No Iterations 2
DILUPBiCGStab:  Solving for Uy, Initial residual = 0.120614, Final residual = 8.85468e-09, No Iterations 2
DILUPBiCGStab:  Solving for e, Initial residual = 0.0398209, Final residual = 1.34971e-10, No Iterations 2
GAMG:  Solving for p_rgh, Initial residual = 0.0949553, Final residual = 0.000564125, No Iterations 3
diagonal:  Solving for rho, Initial residual = 0, Final residual = 0, No Iterations 0
time step continuity errors : sum local = 1.85728e-05, global = 6.57991e-06, cumulative = 0.000367383
GAMG:  Solving for p_rgh, Initial residual = 0.0129272, Final residual = 8.1436e-09, No Iterations 8
diagonal:  Solving for rho, Initial residual = 0, Final residual = 0, No Iterations 0
time step continuity errors : sum local = 6.58006e-06, global = 6.57991e-06, cumulative = 0.000373963
ExecutionTime = 0.67 s  ClockTime = 1 s

Courant Number mean: 0.041204 max: 0.455497
Time = 8

diagonal:  Solving for rho, Initial residual = 0, Final residual = 0, No Iterations 0
DILUPBiCGStab:  Solving for Ux, Initial residual = 0.0597026, Final residual = 1.29776e-09, No Iterations 2
DILUPBiCGStab:  Solving for Uy, Initial residual = 0.110753, Final residual = 2.83926e-09, No Iterations 2
DILUPBiCGStab:  Solving for e, Initial residual = 0.0331304, Final residual = 9.37756e-09, No Iterations 2
GAMG:  Solving for p_rgh, Initial residual = 0.0573327, Final residual = 0.000482728, No Iterations 3
diagonal:  Solving for rho, Initial residual = 0, Final residual = 0, No Iterations 0
time step continuity errors : sum local = 1.71392e-05, global = 5.99867e-06, cumulative = 0.000379962
GAMG:  Solving for p_rgh, Initial residual = 0.0113056, Final residual = 6.55149e-09, No Iterations 8
diagonal:  Solving for rho, Initial residual = 0, Final residual = 0, No Iterations 0
time step continuity errors : sum local = 5.9988e-06, global = 5.99867e-06, cumulative = 0.00038596
ExecutionTime = 0.72 s  ClockTime = 1 s

Courant Number mean: 0.0375722 max: 0.414198
Time = 9

diagonal:  Solving for rho, Initial residual = 0, Final residual = 0, No Iterations 0
DILUPBiCGStab:  Solving for Ux, Initial residual = 0.0551771, Final residual = 1.01892e-09, No Iterations 2
DILUPBiCGStab:  Solving for Uy, Initial residual = 0.101654, Final residual = 3.45127e-09, No Iterations 2
DILUPBiCGStab:  Solving for e, Initial residual = 0.0283071, Final residual = 7.2188e-09, No Iterations 2
GAMG:  Solving for p_rgh, Initial residual = 0.0396882, Final residual = 9.28517e-05, No Iterations 4
diagonal:  Solving for rho, Initial residual = 0, Final residual = 0, No Iterations 0
time step continuity errors : sum local = 7.80657e-06, global = 5.51996e-06, cumulative = 0.00039148
GAMG:  Solving for p_rgh, Initial residual = 0.0102598, Final residual = 1.12532e-09, No Iterations 9
diagonal:  Solving for rho, Initial residual = 0, Final residual = 0, No Iterations 0
time step continuity errors : sum local = 5.51998e-06, global = 5.51996e-06, cumulative = 0.000397
ExecutionTime = 0.78 s  ClockTime = 1 s

Courant Number mean: 0.0344262 max: 0.376011
Time = 10

diagonal:  Solving for rho, Initial residual = 0, Final residual = 0, No Iterations 0
DILUPBiCGStab:  Solving for Ux, Initial residual = 0.051549, Final residual = 8.09811e-10, No Iterations 2
DILUPBiCGStab:  Solving for Uy, Initial residual = 0.0942924, Final residual = 2.98565e-09, No Iterations 2
DILUPBiCGStab:  Solving for e, Initial residual = 0.024695, Final residual = 5.78202e-09, No Iterations 2
GAMG:  Solving for p_rgh, Initial residual = 0.0359523, Final residual = 0.000335707, No Iterations 3
diagonal:  Solving for rho, Initial residual = 0, Final residual = 0, No Iterations 0
time step continuity errors : sum local = 1.35282e-05, global = 5.1218e-06, cumulative = 0.000402122
GAMG:  Solving for p_rgh, Initial residual = 0.00920887, Final residual = 7.50173e-09, No Iterations 8
diagonal:  Solving for rho, Initial residual = 0, Final residual = 0, No Iterations 0
time step continuity errors : sum local = 5.12194e-06, global = 5.1218e-06, cumulative = 0.000407244
ExecutionTime = 0.82 s  ClockTime = 1 s

Courant Number mean: 0.0316632 max: 0.341355
Time = 11

diagonal:  Solving for rho, Initial residual = 0, Final residual = 0, No Iterations 0
DILUPBiCGStab:  Solving for Ux, Initial residual = 0.0486495, Final residual = 6.46741e-10, No Iterations 2
DILUPBiCGStab:  Solving for Uy, Initial residual = 0.0879642, Final residual = 2.43832e-09, No Iterations 2
DILUPBiCGStab:  Solving for e, Initial residual = 0.0218974, Final residual = 5.14759e-09, No Iterations 2
GAMG:  Solving for p_rgh, Initial residual = 0.0336441, Final residual = 0.000294185, No Iterations 3
diagonal:  Solving for rho, Initial residual = 0, Final residual = 0, No Iterations 0
time step continuity errors : sum local = 1.22249e-05, global = 4.78737e-06, cumulative = 0.000412031
GAMG:  Solving for p_rgh, Initial residual = 0.00863809, Final residual = 9.22529e-09, No Iterations 8
diagonal:  Solving for rho, Initial residual = 0, Final residual = 0, No Iterations 0
time step continuity errors : sum local = 4.78753e-06, global = 4.78737e-06, cumulative = 0.000416819
ExecutionTime = 0.87 s  ClockTime = 1 s

Courant Number mean: 0.0292281 max: 0.310238
Time = 12

diagonal:  Solving for rho, Initial residual = 0, Final residual = 0, No Iterations 0
DILUPBiCGStab:  Solving for Ux, Initial residual = 0.0467037, Final residual = 5.26685e-10, No Iterations 2
DILUPBiCGStab:  Solving for Uy, Initial residual = 0.0842742, Final residual = 1.97198e-09, No Iterations 2
DILUPBiCGStab:  Solving for e, Initial residual = 0.0196757, Final residual = 4.97772e-09, No Iterations 2
GAMG:  Solving for p_rgh, Initial residual = 0.0314736, Final residual = 0.000268425, No Iterations 3
diagonal:  Solving for rho, Initial residual = 0, Final residual = 0, No Iterations 0
time step continuity errors : sum local = 1.12717e-05, global = 4.50366e-06, cumulative = 0.000421322
GAMG:  Solving for p_rgh, Initial residual = 0.00819051, Final residual = 1.18854e-09, No Iterations 9
diagonal:  Solving for rho, Initial residual = 0, Final residual = 0, No Iterations 0
time step continuity errors : sum local = 4.50368e-06, global = 4.50366e-06, cumulative = 0.000425826
ExecutionTime = 0.92 s  ClockTime = 1 s

Courant Number mean: 0.0270784 max: 0.282467
Time = 13

diagonal:  Solving for rho, Initial residual = 0, Final residual = 0, No Iterations 0
DILUPBiCGStab:  Solving for Ux, Initial residual = 0.0449395, Final residual = 4.39325e-10, No Iterations 2
DILUPBiCGStab:  Solving for Uy, Initial residual = 0.0826632, Final residual = 1.59439e-09, No Iterations 2
DILUPBiCGStab:  Solving for e, Initial residual = 0.0178511, Final residual = 4.67307e-09, No Iterations 2
GAMG:  Solving for p_rgh, Initial residual = 0.0303738, Final residual = 0.000248764, No Iterations 3
diagonal:  Solving for rho, Initial residual = 0, Final residual = 0, No Iterations 0
time step continuity errors : sum local = 1.05058e-05, global = 4.26065e-06, cumulative = 0.000430087
GAMG:  Solving for p_rgh, Initial residual = 0.00772334, Final residual = 1.3181e-09, No Iterations 9
diagonal:  Solving for rho, Initial residual = 0, Final residual = 0, No Iterations 0
time step continuity errors : sum local = 4.26068e-06, global = 4.26065e-06, cumulative = 0.000434347
ExecutionTime = 0.97 s  ClockTime = 1 s

Courant Number mean: 0.0251722 max: 0.25777
Time = 14

diagonal:  Solving for rho, Initial residual = 0, Final residual = 0, No Iterations 0
DILUPBiCGStab:  Solving for Ux, Initial residual = 0.0433624, Final residual = 3.7726e-10, No Iterations 2
DILUPBiCGStab:  Solving for Uy, Initial residual = 0.0812216, Final residual = 1.29022e-09, No Iterations 2
DILUPBiCGStab:  Solving for e, Initial residual = 0.0163318, Final residual = 4.29184e-09, No Iterations 2
GAMG:  Solving for p_rgh, Initial residual = 0.0291743, Final residual = 0.000233147, No Iterations 3
diagonal:  Solving for rho, Initial residual = 0, Final residual = 0, No Iterations 0
time step continuity errors : sum local = 9.89019e-06, global = 4.05054e-06, cumulative = 0.000438398
GAMG:  Solving for p_rgh, Initial residual = 0.0072718, Final residual = 1.39897e-09, No Iterations 9
diagonal:  Solving for rho, Initial residual = 0, Final residual = 0, No Iterations 0
time step continuity errors : sum local = 4.05057e-06, global = 4.05054e-06, cumulative = 0.000442448
ExecutionTime = 1.02 s  ClockTime = 1 s

Courant Number mean: 0.0234769 max: 0.235857
Time = 15

diagonal:  Solving for rho, Initial residual = 0, Final residual = 0, No Iterations 0
DILUPBiCGStab:  Solving for Ux, Initial residual = 0.0419542, Final residual = 3.3802e-10, No Iterations 2
DILUPBiCGStab:  Solving for Uy, Initial residual = 0.0799953, Final residual = 1.03864e-09, No Iterations 2
DILUPBiCGStab:  Solving for e, Initial residual = 0.0150248, Final residual = 3.93234e-09, No Iterations 2
GAMG:  Solving for p_rgh, Initial residual = 0.0278873, Final residual = 0.000219763, No Iterations 3
diagonal:  Solving for rho, Initial residual = 0, Final residual = 0, No Iterations 0
time step continuity errors : sum local = 9.36264e-06, global = 3.86723e-06, cumulative = 0.000446316
GAMG:  Solving for p_rgh, Initial residual = 0.00686794, Final residual = 1.47705e-09, No Iterations 9
diagonal:  Solving for rho, Initial residual = 0, Final residual = 0, No Iterations 0
time step continuity errors : sum local = 3.86726e-06, global = 3.86723e-06, cumulative = 0.000450183
ExecutionTime = 1.07 s  ClockTime = 1 s

Courant Number mean: 0.0219915 max: 0.216445
Time = 16

diagonal:  Solving for rho, Initial residual = 0, Final residual = 0, No Iterations 0
DILUPBiCGStab:  Solving for Ux, Initial residual = 0.0407204, Final residual = 3.0843e-10, No Iterations 2
DILUPBiCGStab:  Solving for Uy, Initial residual = 0.0787141, Final residual = 8.35701e-10, No Iterations 2
DILUPBiCGStab:  Solving for e, Initial residual = 0.0139024, Final residual = 3.5067e-09, No Iterations 2
GAMG:  Solving for p_rgh, Initial residual = 0.0269725, Final residual = 0.000210376, No Iterations 3
diagonal:  Solving for rho, Initial residual = 0, Final residual = 0, No Iterations 0
time step continuity errors : sum local = 8.94135e-06, global = 3.70597e-06, cumulative = 0.000453889
GAMG:  Solving for p_rgh, Initial residual = 0.00653313, Final residual = 1.51929e-09, No Iterations 9
diagonal:  Solving for rho, Initial residual = 0, Final residual = 0, No Iterations 0
time step continuity errors : sum local = 3.706e-06, global = 3.70597e-06, cumulative = 0.000457595
ExecutionTime = 1.12 s  ClockTime = 1 s

Courant Number mean: 0.0207245 max: 0.199196
Time = 17

diagonal:  Solving for rho, Initial residual = 0, Final residual = 0, No Iterations 0
DILUPBiCGStab:  Solving for Ux, Initial residual = 0.0396135, Final residual = 2.88371e-10, No Iterations 2
DILUPBiCGStab:  Solving for Uy, Initial residual = 0.0776883, Final residual = 6.75876e-10, No Iterations 2
DILUPBiCGStab:  Solving for e, Initial residual = 0.0129352, Final residual = 3.15071e-09, No Iterations 2
GAMG:  Solving for p_rgh, Initial residual = 0.0260498, Final residual = 0.000200989, No Iterations 3
diagonal:  Solving for rho, Initial residual = 0, Final residual = 0, No Iterations 0
time step continuity errors : sum local = 8.53892e-06, global = 3.563e-06, cumulative = 0.000461158
GAMG:  Solving for p_rgh, Initial residual = 0.00630596, Final residual = 1.56705e-09, No Iterations 9
diagonal:  Solving for rho, Initial residual = 0, Final residual = 0, No Iterations 0
time step continuity errors : sum local = 3.56303e-06, global = 3.563e-06, cumulative = 0.000464721
ExecutionTime = 1.17 s  ClockTime = 1 s

Courant Number mean: 0.0196185 max: 0.183859
Time = 18

diagonal:  Solving for rho, Initial residual = 0, Final residual = 0, No Iterations 0
DILUPBiCGStab:  Solving for Ux, Initial residual = 0.0386403, Final residual = 2.74309e-10, No Iterations 2
DILUPBiCGStab:  Solving for Uy, Initial residual = 0.0767392, Final residual = 5.57693e-10, No Iterations 2
DILUPBiCGStab:  Solving for e, Initial residual = 0.0120924, Final residual = 2.87284e-09, No Iterations 2
GAMG:  Solving for p_rgh, Initial residual = 0.0247402, Final residual = 0.000194267, No Iterations 3
diagonal:  Solving for rho, Initial residual = 0, Final residual = 0, No Iterations 0
time step continuity errors : sum local = 8.22537e-06, global = 3.43529e-06, cumulative = 0.000468156
GAMG:  Solving for p_rgh, Initial residual = 0.00606547, Final residual = 1.6128e-09, No Iterations 9
diagonal:  Solving for rho, Initial residual = 0, Final residual = 0, No Iterations 0
time step continuity errors : sum local = 3.43532e-06, global = 3.43529e-06, cumulative = 0.000471591
ExecutionTime = 1.22 s  ClockTime = 1 s

Courant Number mean: 0.0186345 max: 0.170883
Time = 19

diagonal:  Solving for rho, Initial residual = 0, Final residual = 0, No Iterations 0
DILUPBiCGStab:  Solving for Ux, Initial residual = 0.0377017, Final residual = 2.64303e-10, No Iterations 2
DILUPBiCGStab:  Solving for Uy, Initial residual = 0.0755896, Final residual = 4.64615e-10, No Iterations 2
DILUPBiCGStab:  Solving for e, Initial residual = 0.0113514, Final residual = 2.62349e-09, No Iterations 2
GAMG:  Solving for p_rgh, Initial residual = 0.0240213, Final residual = 0.000186526, No Iterations 3
diagonal:  Solving for rho, Initial residual = 0, Final residual = 0, No Iterations 0
time step continuity errors : sum local = 7.88844e-06, global = 3.32042e-06, cumulative = 0.000474912
GAMG:  Solving for p_rgh, Initial residual = 0.00590197, Final residual = 1.61327e-09, No Iterations 9
diagonal:  Solving for rho, Initial residual = 0, Final residual = 0, No Iterations 0
time step continuity errors : sum local = 3.32044e-06, global = 3.32042e-06, cumulative = 0.000478232
ExecutionTime = 1.27 s  ClockTime = 1 s

Courant Number mean: 0.0177541 max: 0.161937
Time = 20

diagonal:  Solving for rho, Initial residual = 0, Final residual = 0, No Iterations 0
DILUPBiCGStab:  Solving for Ux, Initial residual = 0.0368452, Final residual = 2.59016e-10, No Iterations 2
DILUPBiCGStab:  Solving for Uy, Initial residual = 0.0743364, Final residual = 3.91739e-10, No Iterations 2
DILUPBiCGStab:  Solving for e, Initial residual = 0.0106963, Final residual = 2.40306e-09, No Iterations 2
GAMG:  Solving for p_rgh, Initial residual = 0.0235857, Final residual = 0.000181481, No Iterations 3
diagonal:  Solving for rho, Initial residual = 0, Final residual = 0, No Iterations 0
time step continuity errors : sum local = 7.61908e-06, global = 3.2164e-06, cumulative = 0.000481449
GAMG:  Solving for p_rgh, Initial residual = 0.00576022, Final residual = 1.59678e-09, No Iterations 9
diagonal:  Solving for rho, Initial residual = 0, Final residual = 0, No Iterations 0
time step continuity errors : sum local = 3.21643e-06, global = 3.2164e-06, cumulative = 0.000484665
ExecutionTime = 1.32 s  ClockTime = 2 s

Courant Number mean: 0.01696 max: 0.153855
Time = 21

diagonal:  Solving for rho, Initial residual = 0, Final residual = 0, No Iterations 0
DILUPBiCGStab:  Solving for Ux, Initial residual = 0.0360155, Final residual = 2.56045e-10, No Iterations 2
DILUPBiCGStab:  Solving for Uy, Initial residual = 0.0729443, Final residual = 3.37202e-10, No Iterations 2
DILUPBiCGStab:  Solving for e, Initial residual = 0.0101123, Final residual = 2.20851e-09, No Iterations 2
GAMG:  Solving for p_rgh, Initial residual = 0.0231788, Final residual = 0.00017632, No Iterations 3
diagonal:  Solving for rho, Initial residual = 0, Final residual = 0, No Iterations 0
time step continuity errors : sum local = 7.35671e-06, global = 3.12168e-06, cumulative = 0.000487787
GAMG:  Solving for p_rgh, Initial residual = 0.00563518, Final residual = 9.98629e-09, No Iterations 8
diagonal:  Solving for rho, Initial residual = 0, Final residual = 0, No Iterations 0
time step continuity errors : sum local = 3.12186e-06, global = 3.12168e-06, cumulative = 0.000490908
ExecutionTime = 1.37 s  ClockTime = 2 s

Courant Number mean: 0.0162478 max: 0.146376
Time = 22

diagonal:  Solving for rho, Initial residual = 0, Final residual = 0, No Iterations 0
DILUPBiCGStab:  Solving for Ux, Initial residual = 0.0352062, Final residual = 2.53947e-10, No Iterations 2
DILUPBiCGStab:  Solving for Uy, Initial residual = 0.0714599, Final residual = 2.94422e-10, No Iterations 2
DILUPBiCGStab:  Solving for e, Initial residual = 0.00958754, Final residual = 2.03811e-09, No Iterations 2
GAMG:  Solving for p_rgh, Initial residual = 0.0227061, Final residual = 0.000171865, No Iterations 3
diagonal:  Solving for rho, Initial residual = 0, Final residual = 0, No Iterations 0
time step continuity errors : sum local = 7.11848e-06, global = 3.03494e-06, cumulative = 0.000493943
GAMG:  Solving for p_rgh, Initial residual = 0.00554979, Final residual = 9.70282e-09, No Iterations 8
diagonal:  Solving for rho, Initial residual = 0, Final residual = 0, No Iterations 0
time step continuity errors : sum local = 3.03511e-06, global = 3.03494e-06, cumulative = 0.000496978
ExecutionTime = 1.42 s  ClockTime = 2 s

Courant Number mean: 0.0156107 max: 0.139477
Time = 23

diagonal:  Solving for rho, Initial residual = 0, Final residual = 0, No Iterations 0
DILUPBiCGStab:  Solving for Ux, Initial residual = 0.0344363, Final residual = 2.52226e-10, No Iterations 2
DILUPBiCGStab:  Solving for Uy, Initial residual = 0.0698973, Final residual = 2.60893e-10, No Iterations 2
DILUPBiCGStab:  Solving for e, Initial residual = 0.0091126, Final residual = 1.88685e-09, No Iterations 2
GAMG:  Solving for p_rgh, Initial residual = 0.0222598, Final residual = 0.000167733, No Iterations 3
diagonal:  Solving for rho, Initial residual = 0, Final residual = 0, No Iterations 0
time step continuity errors : sum local = 6.89488e-06, global = 2.95512e-06, cumulative = 0.000499933
GAMG:  Solving for p_rgh, Initial residual = 0.00546692, Final residual = 9.43349e-09, No Iterations 8
diagonal:  Solving for rho, Initial residual = 0, Final residual = 0, No Iterations 0
time step continuity errors : sum local = 2.95529e-06, global = 2.95512e-06, cumulative = 0.000502888
ExecutionTime = 1.47 s  ClockTime = 2 s

Courant Number mean: 0.0150424 max: 0.133135
Time = 24

diagonal:  Solving for rho, Initial residual = 0, Final residual = 0, No Iterations 0
DILUPBiCGStab:  Solving for Ux, Initial residual = 0.0337072, Final residual = 2.49706e-10, No Iterations 2
DILUPBiCGStab:  Solving for Uy, Initial residual = 0.0682671, Final residual = 2.33823e-10, No Iterations 2
DILUPBiCGStab:  Solving for e, Initial residual = 0.00868029, Final residual = 1.75157e-09, No Iterations 2
GAMG:  Solving for p_rgh, Initial residual = 0.0217436, Final residual = 0.000164057, No Iterations 3
diagonal:  Solving for rho, Initial residual = 0, Final residual = 0, No Iterations 0
time step continuity errors : sum local = 6.68735e-06, global = 2.88135e-06, cumulative = 0.00050577
GAMG:  Solving for p_rgh, Initial residual = 0.00538634, Final residual = 9.20256e-09, No Iterations 8
diagonal:  Solving for rho, Initial residual = 0, Final residual = 0, No Iterations 0
time step continuity errors : sum local = 2.88151e-06, global = 2.88135e-06, cumulative = 0.000508651
ExecutionTime = 1.52 s  ClockTime = 2 s

Courant Number mean: 0.0145381 max: 0.12732
Time = 25

diagonal:  Solving for rho, Initial residual = 0, Final residual = 0, No Iterations 0
DILUPBiCGStab:  Solving for Ux, Initial residual = 0.0330086, Final residual = 2.46319e-10, No Iterations 2
DILUPBiCGStab:  Solving for Uy, Initial residual = 0.0665733, Final residual = 2.12168e-10, No Iterations 2
DILUPBiCGStab:  Solving for e, Initial residual = 0.00828527, Final residual = 1.62825e-09, No Iterations 2
GAMG:  Solving for p_rgh, Initial residual = 0.0212514, Final residual = 0.000160633, No Iterations 3
diagonal:  Solving for rho, Initial residual = 0, Final residual = 0, No Iterations 0
time step continuity errors : sum local = 6.49071e-06, global = 2.81288e-06, cumulative = 0.000511464
GAMG:  Solving for p_rgh, Initial residual = 0.00530998, Final residual = 8.99702e-09, No Iterations 8
diagonal:  Solving for rho, Initial residual = 0, Final residual = 0, No Iterations 0
time step continuity errors : sum local = 2.81303e-06, global = 2.81288e-06, cumulative = 0.000514277
ExecutionTime = 1.57 s  ClockTime = 2 s

Courant Number mean: 0.0140933 max: 0.122678
Time = 26

diagonal:  Solving for rho, Initial residual = 0, Final residual = 0, No Iterations 0
DILUPBiCGStab:  Solving for Ux, Initial residual = 0.0323504, Final residual = 2.41012e-10, No Iterations 2
DILUPBiCGStab:  Solving for Uy, Initial residual = 0.0648124, Final residual = 1.93578e-10, No Iterations 2
DILUPBiCGStab:  Solving for e, Initial residual = 0.00792202, Final residual = 1.51872e-09, No Iterations 2
GAMG:  Solving for p_rgh, Initial residual = 0.0207582, Final residual = 0.000157576, No Iterations 3
diagonal:  Solving for rho, Initial residual = 0, Final residual = 0, No Iterations 0
time step continuity errors : sum local = 6.30732e-06, global = 2.7491e-06, cumulative = 0.000517026
GAMG:  Solving for p_rgh, Initial residual = 0.00525188, Final residual = 8.83068e-09, No Iterations 8
diagonal:  Solving for rho, Initial residual = 0, Final residual = 0, No Iterations 0
time step continuity errors : sum local = 2.74925e-06, global = 2.7491e-06, cumulative = 0.000519775
ExecutionTime = 1.62 s  ClockTime = 2 s

Courant Number mean: 0.0137053 max: 0.118519
Time = 27

diagonal:  Solving for rho, Initial residual = 0, Final residual = 0, No Iterations 0
DILUPBiCGStab:  Solving for Ux, Initial residual = 0.0316937, Final residual = 2.33288e-10, No Iterations 2
DILUPBiCGStab:  Solving for Uy, Initial residual = 0.0630063, Final residual = 1.77957e-10, No Iterations 2
DILUPBiCGStab:  Solving for e, Initial residual = 0.00758625, Final residual = 1.42556e-09, No Iterations 2
GAMG:  Solving for p_rgh, Initial residual = 0.0203344, Final residual = 0.000154456, No Iterations 3
diagonal:  Solving for rho, Initial residual = 0, Final residual = 0, No Iterations 0
time step continuity errors : sum local = 6.12837e-06, global = 2.6895e-06, cumulative = 0.000522465
GAMG:  Solving for p_rgh, Initial residual = 0.0052332, Final residual = 8.66977e-09, No Iterations 8
diagonal:  Solving for rho, Initial residual = 0, Final residual = 0, No Iterations 0
time step continuity errors : sum local = 2.68964e-06, global = 2.6895e-06, cumulative = 0.000525154
ExecutionTime = 1.67 s  ClockTime = 2 s

Courant Number mean: 0.0133694 max: 0.114737
Time = 28

diagonal:  Solving for rho, Initial residual = 0, Final residual = 0, No Iterations 0
DILUPBiCGStab:  Solving for Ux, Initial residual = 0.0309731, Final residual = 2.25228e-10, No Iterations 2
DILUPBiCGStab:  Solving for Uy, Initial residual = 0.0611541, Final residual = 1.63495e-10, No Iterations 2
DILUPBiCGStab:  Solving for e, Initial residual = 0.00727447, Final residual = 1.33804e-09, No Iterations 2
GAMG:  Solving for p_rgh, Initial residual = 0.0198248, Final residual = 0.000151747, No Iterations 3
diagonal:  Solving for rho, Initial residual = 0, Final residual = 0, No Iterations 0
time step continuity errors : sum local = 5.96249e-06, global = 2.63361e-06, cumulative = 0.000527788
GAMG:  Solving for p_rgh, Initial residual = 0.00520178, Final residual = 8.57374e-09, No Iterations 8
diagonal:  Solving for rho, Initial residual = 0, Final residual = 0, No Iterations 0
time step continuity errors : sum local = 2.63374e-06, global = 2.63361e-06, cumulative = 0.000530421
ExecutionTime = 1.72 s  ClockTime = 2 s

Courant Number mean: 0.0130839 max: 0.111337
Time = 29

diagonal:  Solving for rho, Initial residual = 0, Final residual = 0, No Iterations 0
DILUPBiCGStab:  Solving for Ux, Initial residual = 0.0302542, Final residual = 2.14636e-10, No Iterations 2
DILUPBiCGStab:  Solving for Uy, Initial residual = 0.0592733, Final residual = 1.51104e-10, No Iterations 2
DILUPBiCGStab:  Solving for e, Initial residual = 0.00698424, Final residual = 1.25988e-09, No Iterations 2
GAMG:  Solving for p_rgh, Initial residual = 0.0195676, Final residual = 0.000149097, No Iterations 3
diagonal:  Solving for rho, Initial residual = 0, Final residual = 0, No Iterations 0
time step continuity errors : sum local = 5.80287e-06, global = 2.58105e-06, cumulative = 0.000533002
GAMG:  Solving for p_rgh, Initial residual = 0.00517325, Final residual = 8.48828e-09, No Iterations 8
diagonal:  Solving for rho, Initial residual = 0, Final residual = 0, No Iterations 0
time step continuity errors : sum local = 2.58118e-06, global = 2.58105e-06, cumulative = 0.000535583
ExecutionTime = 1.77 s  ClockTime = 2 s

Courant Number mean: 0.0128459 max: 0.108299
Time = 30

diagonal:  Solving for rho, Initial residual = 0, Final residual = 0, No Iterations 0
DILUPBiCGStab:  Solving for Ux, Initial residual = 0.0295414, Final residual = 2.03357e-10, No Iterations 2
DILUPBiCGStab:  Solving for Uy, Initial residual = 0.0573636, Final residual = 1.41581e-10, No Iterations 2
DILUPBiCGStab:  Solving for e, Initial residual = 0.00671456, Final residual = 1.19006e-09, No Iterations 2
GAMG:  Solving for p_rgh, Initial residual = 0.0193141, Final residual = 0.000146697, No Iterations 3
diagonal:  Solving for rho, Initial residual = 0, Final residual = 0, No Iterations 0
time step continuity errors : sum local = 5.65256e-06, global = 2.53149e-06, cumulative = 0.000538115
GAMG:  Solving for p_rgh, Initial residual = 0.00514411, Final residual = 8.43644e-09, No Iterations 8
diagonal:  Solving for rho, Initial residual = 0, Final residual = 0, No Iterations 0
time step continuity errors : sum local = 2.53162e-06, global = 2.53149e-06, cumulative = 0.000540646
ExecutionTime = 1.82 s  ClockTime = 2 s

Courant Number mean: 0.0126532 max: 0.105603
Time = 31

diagonal:  Solving for rho, Initial residual = 0, Final residual = 0, No Iterations 0
DILUPBiCGStab:  Solving for Ux, Initial residual = 0.0288025, Final residual = 1.91434e-10, No Iterations 2
DILUPBiCGStab:  Solving for Uy, Initial residual = 0.0554482, Final residual = 1.34385e-10, No Iterations 2
DILUPBiCGStab:  Solving for e, Initial residual = 0.0064669, Final residual = 1.1285e-09, No Iterations 2
GAMG:  Solving for p_rgh, Initial residual = 0.0190425, Final residual = 0.000144219, No Iterations 3
diagonal:  Solving for rho, Initial residual = 0, Final residual = 0, No Iterations 0
time step continuity errors : sum local = 5.50628e-06, global = 2.48464e-06, cumulative = 0.000543131
GAMG:  Solving for p_rgh, Initial residual = 0.00510986, Final residual = 8.40595e-09, No Iterations 8
diagonal:  Solving for rho, Initial residual = 0, Final residual = 0, No Iterations 0
time step continuity errors : sum local = 2.48477e-06, global = 2.48464e-06, cumulative = 0.000545616
ExecutionTime = 1.87 s  ClockTime = 2 s

Courant Number mean: 0.0124974 max: 0.103225
Time = 32

diagonal:  Solving for rho, Initial residual = 0, Final residual = 0, No Iterations 0
DILUPBiCGStab:  Solving for Ux, Initial residual = 0.0280584, Final residual = 1.79175e-10, No Iterations 2
DILUPBiCGStab:  Solving for Uy, Initial residual = 0.0535399, Final residual = 1.30575e-10, No Iterations 2
DILUPBiCGStab:  Solving for e, Initial residual = 0.00625085, Final residual = 1.07365e-09, No Iterations 2
GAMG:  Solving for p_rgh, Initial residual = 0.0187662, Final residual = 0.000141409, No Iterations 3
diagonal:  Solving for rho, Initial residual = 0, Final residual = 0, No Iterations 0
time step continuity errors : sum local = 5.35902e-06, global = 2.44024e-06, cumulative = 0.000548056
GAMG:  Solving for p_rgh, Initial residual = 0.0050776, Final residual = 8.33105e-09, No Iterations 8
diagonal:  Solving for rho, Initial residual = 0, Final residual = 0, No Iterations 0
time step continuity errors : sum local = 2.44037e-06, global = 2.44024e-06, cumulative = 0.000550496
ExecutionTime = 1.92 s  ClockTime = 2 s

Courant Number mean: 0.01238 max: 0.101139
Time = 33

diagonal:  Solving for rho, Initial residual = 0, Final residual = 0, No Iterations 0
DILUPBiCGStab:  Solving for Ux, Initial residual = 0.0273116, Final residual = 1.68025e-10, No Iterations 2
DILUPBiCGStab:  Solving for Uy, Initial residual = 0.0516758, Final residual = 1.28929e-10, No Iterations 2
DILUPBiCGStab:  Solving for e, Initial residual = 0.00604896, Final residual = 1.02378e-09, No Iterations 2
GAMG:  Solving for p_rgh, Initial residual = 0.0185213, Final residual = 0.000139484, No Iterations 3
diagonal:  Solving for rho, Initial residual = 0, Final residual = 0, No Iterations 0
time step continuity errors : sum local = 5.23314e-06, global = 2.39808e-06, cumulative = 0.000552894
GAMG:  Solving for p_rgh, Initial residual = 0.00504494, Final residual = 8.33556e-09, No Iterations 8
diagonal:  Solving for rho, Initial residual = 0, Final residual = 0, No Iterations 0
time step continuity errors : sum local = 2.3982e-06, global = 2.39808e-06, cumulative = 0.000555292
ExecutionTime = 1.97 s  ClockTime = 2 s

Courant Number mean: 0.0122975 max: 0.0993262
Time = 34

diagonal:  Solving for rho, Initial residual = 0, Final residual = 0, No Iterations 0
DILUPBiCGStab:  Solving for Ux, Initial residual = 0.0265476, Final residual = 1.57163e-10, No Iterations 2
DILUPBiCGStab:  Solving for Uy, Initial residual = 0.0499922, Final residual = 1.27554e-10, No Iterations 2
DILUPBiCGStab:  Solving for e, Initial residual = 0.00585934, Final residual = 9.78529e-10, No Iterations 2
GAMG:  Solving for p_rgh, Initial residual = 0.0181219, Final residual = 0.000136313, No Iterations 3
diagonal:  Solving for rho, Initial residual = 0, Final residual = 0, No Iterations 0
time step continuity errors : sum local = 5.09806e-06, global = 2.35796e-06, cumulative = 0.00055765
GAMG:  Solving for p_rgh, Initial residual = 0.00497204, Final residual = 8.23991e-09, No Iterations 8
diagonal:  Solving for rho, Initial residual = 0, Final residual = 0, No Iterations 0
time step continuity errors : sum local = 2.35808e-06, global = 2.35796e-06, cumulative = 0.000560008
ExecutionTime = 2.02 s  ClockTime = 2 s

Courant Number mean: 0.0122488 max: 0.0977707
Time = 35

diagonal:  Solving for rho, Initial residual = 0, Final residual = 0, No Iterations 0
DILUPBiCGStab:  Solving for Ux, Initial residual = 0.0257968, Final residual = 1.48167e-10, No Iterations 2
DILUPBiCGStab:  Solving for Uy, Initial residual = 0.0484, Final residual = 1.25666e-10, No Iterations 2
DILUPBiCGStab:  Solving for e, Initial residual = 0.00568079, Final residual = 9.36371e-10, No Iterations 2
GAMG:  Solving for p_rgh, Initial residual = 0.0177161, Final residual = 0.000133314, No Iterations 3
diagonal:  Solving for rho, Initial residual = 0, Final residual = 0, No Iterations 0
time step continuity errors : sum local = 4.97565e-06, global = 2.3197e-06, cumulative = 0.000562328
GAMG:  Solving for p_rgh, Initial residual = 0.004899, Final residual = 8.22899e-09, No Iterations 8
diagonal:  Solving for rho, Initial residual = 0, Final residual = 0, No Iterations 0
time step continuity errors : sum local = 2.31982e-06, global = 2.3197e-06, cumulative = 0.000564648
ExecutionTime = 2.07 s  ClockTime = 2 s

Courant Number mean: 0.0122322 max: 0.0971021
Time = 36

diagonal:  Solving for rho, Initial residual = 0, Final residual = 0, No Iterations 0
DILUPBiCGStab:  Solving for Ux, Initial residual = 0.0250659, Final residual = 1.41088e-10, No Iterations 2
DILUPBiCGStab:  Solving for Uy, Initial residual = 0.0468812, Final residual = 1.22757e-10, No Iterations 2
DILUPBiCGStab:  Solving for e, Initial residual = 0.00550982, Final residual = 8.97605e-10, No Iterations 2
GAMG:  Solving for p_rgh, Initial residual = 0.017301, Final residual = 0.000130266, No Iterations 3
diagonal:  Solving for rho, Initial residual = 0, Final residual = 0, No Iterations 0
time step continuity errors : sum local = 4.85711e-06, global = 2.28315e-06, cumulative = 0.000566931
GAMG:  Solving for p_rgh, Initial residual = 0.00482824, Final residual = 8.14446e-09, No Iterations 8
diagonal:  Solving for rho, Initial residual = 0, Final residual = 0, No Iterations 0
time step continuity errors : sum local = 2.28327e-06, global = 2.28315e-06, cumulative = 0.000569214
ExecutionTime = 2.12 s  ClockTime = 2 s

Courant Number mean: 0.0122458 max: 0.0967278
Time = 37

diagonal:  Solving for rho, Initial residual = 0, Final residual = 0, No Iterations 0
DILUPBiCGStab:  Solving for Ux, Initial residual = 0.0243318, Final residual = 1.35749e-10, No Iterations 2
DILUPBiCGStab:  Solving for Uy, Initial residual = 0.0454872, Final residual = 1.19334e-10, No Iterations 2
DILUPBiCGStab:  Solving for e, Initial residual = 0.00534584, Final residual = 8.60929e-10, No Iterations 2
GAMG:  Solving for p_rgh, Initial residual = 0.0168944, Final residual = 0.000126874, No Iterations 3
diagonal:  Solving for rho, Initial residual = 0, Final residual = 0, No Iterations 0
time step continuity errors : sum local = 4.73575e-06, global = 2.24818e-06, cumulative = 0.000571462
GAMG:  Solving for p_rgh, Initial residual = 0.00475227, Final residual = 8.07439e-09, No Iterations 8
diagonal:  Solving for rho, Initial residual = 0, Final residual = 0, No Iterations 0
time step continuity errors : sum local = 2.24829e-06, global = 2.24818e-06, cumulative = 0.00057371
ExecutionTime = 2.17 s  ClockTime = 2 s

Courant Number mean: 0.0122862 max: 0.0965181
Time = 38

diagonal:  Solving for rho, Initial residual = 0, Final residual = 0, No Iterations 0
DILUPBiCGStab:  Solving for Ux, Initial residual = 0.0236152, Final residual = 1.32222e-10, No Iterations 2
DILUPBiCGStab:  Solving for Uy, Initial residual = 0.0442253, Final residual = 1.16303e-10, No Iterations 2
DILUPBiCGStab:  Solving for e, Initial residual = 0.00518769, Final residual = 8.27288e-10, No Iterations 2
GAMG:  Solving for p_rgh, Initial residual = 0.0164898, Final residual = 0.000124208, No Iterations 3
diagonal:  Solving for rho, Initial residual = 0, Final residual = 0, No Iterations 0
time step continuity errors : sum local = 4.62978e-06, global = 2.21465e-06, cumulative = 0.000575925
GAMG:  Solving for p_rgh, Initial residual = 0.00468298, Final residual = 8.10028e-09, No Iterations 8
diagonal:  Solving for rho, Initial residual = 0, Final residual = 0, No Iterations 0
time step continuity errors : sum local = 2.21476e-06, global = 2.21465e-06, cumulative = 0.00057814
ExecutionTime = 2.22 s  ClockTime = 2 s

Courant Number mean: 0.0123508 max: 0.096466
Time = 39

diagonal:  Solving for rho, Initial residual = 0, Final residual = 0, No Iterations 0
DILUPBiCGStab:  Solving for Ux, Initial residual = 0.0229245, Final residual = 1.29871e-10, No Iterations 2
DILUPBiCGStab:  Solving for Uy, Initial residual = 0.0430512, Final residual = 1.129e-10, No Iterations 2
DILUPBiCGStab:  Solving for e, Initial residual = 0.00503727, Final residual = 7.96001e-10, No Iterations 2
GAMG:  Solving for p_rgh, Initial residual = 0.0160853, Final residual = 0.000121333, No Iterations 3
diagonal:  Solving for rho, Initial residual = 0, Final residual = 0, No Iterations 0
time step continuity errors : sum local = 4.52426e-06, global = 2.18247e-06, cumulative = 0.000580322
GAMG:  Solving for p_rgh, Initial residual = 0.00460589, Final residual = 8.06188e-09, No Iterations 8
diagonal:  Solving for rho, Initial residual = 0, Final residual = 0, No Iterations 0
time step continuity errors : sum local = 2.18258e-06, global = 2.18247e-06, cumulative = 0.000582505
ExecutionTime = 2.27 s  ClockTime = 2 s

Courant Number mean: 0.0124384 max: 0.0965658
Time = 40

diagonal:  Solving for rho, Initial residual = 0, Final residual = 0, No Iterations 0
DILUPBiCGStab:  Solving for Ux, Initial residual = 0.0223284, Final residual = 1.2889e-10, No Iterations 2
DILUPBiCGStab:  Solving for Uy, Initial residual = 0.0419822, Final residual = 1.08833e-10, No Iterations 2
DILUPBiCGStab:  Solving for e, Initial residual = 0.00489445, Final residual = 7.66953e-10, No Iterations 2
GAMG:  Solving for p_rgh, Initial residual = 0.0156654, Final residual = 0.000118457, No Iterations 3
diagonal:  Solving for rho, Initial residual = 0, Final residual = 0, No Iterations 0
time step continuity errors : sum local = 4.42398e-06, global = 2.15152e-06, cumulative = 0.000584656
GAMG:  Solving for p_rgh, Initial residual = 0.00452184, Final residual = 8.02538e-09, No Iterations 8
diagonal:  Solving for rho, Initial residual = 0, Final residual = 0, No Iterations 0
time step continuity errors : sum local = 2.15163e-06, global = 2.15152e-06, cumulative = 0.000586808
ExecutionTime = 2.32 s  ClockTime = 3 s

Courant Number mean: 0.0125471 max: 0.0968115
Time = 41

diagonal:  Solving for rho, Initial residual = 0, Final residual = 0, No Iterations 0
DILUPBiCGStab:  Solving for Ux, Initial residual = 0.0218113, Final residual = 1.28913e-10, No Iterations 2
DILUPBiCGStab:  Solving for Uy, Initial residual = 0.0411106, Final residual = 1.04735e-10, No Iterations 2
DILUPBiCGStab:  Solving for e, Initial residual = 0.00475876, Final residual = 7.40258e-10, No Iterations 2
GAMG:  Solving for p_rgh, Initial residual = 0.0152222, Final residual = 0.000115495, No Iterations 3
diagonal:  Solving for rho, Initial residual = 0, Final residual = 0, No Iterations 0
time step continuity errors : sum local = 4.32756e-06, global = 2.12173e-06, cumulative = 0.000588929
GAMG:  Solving for p_rgh, Initial residual = 0.00444316, Final residual = 7.97089e-09, No Iterations 8
diagonal:  Solving for rho, Initial residual = 0, Final residual = 0, No Iterations 0
time step continuity errors : sum local = 2.12183e-06, global = 2.12173e-06, cumulative = 0.000591051
ExecutionTime = 2.37 s  ClockTime = 3 s

Courant Number mean: 0.0126756 max: 0.0971976
Time = 42

diagonal:  Solving for rho, Initial residual = 0, Final residual = 0, No Iterations 0
DILUPBiCGStab:  Solving for Ux, Initial residual = 0.0213607, Final residual = 1.2965e-10, No Iterations 2
DILUPBiCGStab:  Solving for Uy, Initial residual = 0.0403354, Final residual = 1.00186e-10, No Iterations 2
DILUPBiCGStab:  Solving for e, Initial residual = 0.00463108, Final residual = 7.15728e-10, No Iterations 2
GAMG:  Solving for p_rgh, Initial residual = 0.014797, Final residual = 0.000112469, No Iterations 3
diagonal:  Solving for rho, Initial residual = 0, Final residual = 0, No Iterations 0
time step continuity errors : sum local = 4.23246e-06, global = 2.093e-06, cumulative = 0.000593144
GAMG:  Solving for p_rgh, Initial residual = 0.00438002, Final residual = 7.93056e-09, No Iterations 8
diagonal:  Solving for rho, Initial residual = 0, Final residual = 0, No Iterations 0
time step continuity errors : sum local = 2.09311e-06, global = 2.093e-06, cumulative = 0.000595237
ExecutionTime = 2.42 s  ClockTime = 3 s

Courant Number mean: 0.012823 max: 0.0977469
Time = 43

diagonal:  Solving for rho, Initial residual = 0, Final residual = 0, No Iterations 0
DILUPBiCGStab:  Solving for Ux, Initial residual = 0.02104, Final residual = 1.31444e-10, No Iterations 2
DILUPBiCGStab:  Solving for Uy, Initial residual = 0.0395999, Final residual = 9.57343e-11, No Iterations 2
DILUPBiCGStab:  Solving for e, Initial residual = 0.00451282, Final residual = 6.93061e-10, No Iterations 2
GAMG:  Solving for p_rgh, Initial residual = 0.0143891, Final residual = 0.000109596, No Iterations 3
diagonal:  Solving for rho, Initial residual = 0, Final residual = 0, No Iterations 0
time step continuity errors : sum local = 4.14207e-06, global = 2.06527e-06, cumulative = 0.000597302
GAMG:  Solving for p_rgh, Initial residual = 0.0043382, Final residual = 7.89672e-09, No Iterations 8
diagonal:  Solving for rho, Initial residual = 0, Final residual = 0, No Iterations 0
time step continuity errors : sum local = 2.06538e-06, global = 2.06527e-06, cumulative = 0.000599368
ExecutionTime = 2.47 s  ClockTime = 3 s

Courant Number mean: 0.0129891 max: 0.0984739
Time = 44

diagonal:  Solving for rho, Initial residual = 0, Final residual = 0, No Iterations 0
DILUPBiCGStab:  Solving for Ux, Initial residual = 0.0207985, Final residual = 1.34122e-10, No Iterations 2
DILUPBiCGStab:  Solving for Uy, Initial residual = 0.038883, Final residual = 9.194e-11, No Iterations 2
DILUPBiCGStab:  Solving for e, Initial residual = 0.00440705, Final residual = 6.72346e-10, No Iterations 2
GAMG:  Solving for p_rgh, Initial residual = 0.0139991, Final residual = 0.000106638, No Iterations 3
diagonal:  Solving for rho, Initial residual = 0, Final residual = 0, No Iterations 0
time step continuity errors : sum local = 4.05243e-06, global = 2.03847e-06, cumulative = 0.000601406
GAMG:  Solving for p_rgh, Initial residual = 0.00430451, Final residual = 7.83878e-09, No Iterations 8
diagonal:  Solving for rho, Initial residual = 0, Final residual = 0, No Iterations 0
time step continuity errors : sum local = 2.03857e-06, global = 2.03847e-06, cumulative = 0.000603445
ExecutionTime = 2.52 s  ClockTime = 3 s

Courant Number mean: 0.0131746 max: 0.0993183
Time = 45

diagonal:  Solving for rho, Initial residual = 0, Final residual = 0, No Iterations 0
DILUPBiCGStab:  Solving for Ux, Initial residual = 0.0206378, Final residual = 1.37765e-10, No Iterations 2
DILUPBiCGStab:  Solving for Uy, Initial residual = 0.0381769, Final residual = 8.89926e-11, No Iterations 2
DILUPBiCGStab:  Solving for e, Initial residual = 0.00431037, Final residual = 6.53338e-10, No Iterations 2
GAMG:  Solving for p_rgh, Initial residual = 0.0136679, Final residual = 0.000103919, No Iterations 3
diagonal:  Solving for rho, Initial residual = 0, Final residual = 0, No Iterations 0
time step continuity errors : sum local = 3.96884e-06, global = 2.01254e-06, cumulative = 0.000605457
GAMG:  Solving for p_rgh, Initial residual = 0.00428133, Final residual = 7.8098e-09, No Iterations 8
diagonal:  Solving for rho, Initial residual = 0, Final residual = 0, No Iterations 0
time step continuity errors : sum local = 2.01264e-06, global = 2.01254e-06, cumulative = 0.00060747
ExecutionTime = 2.57 s  ClockTime = 3 s

Courant Number mean: 0.0133786 max: 0.100276
Time = 46

diagonal:  Solving for rho, Initial residual = 0, Final residual = 0, No Iterations 0
DILUPBiCGStab:  Solving for Ux, Initial residual = 0.0205143, Final residual = 1.42059e-10, No Iterations 2
DILUPBiCGStab:  Solving for Uy, Initial residual = 0.0374697, Final residual = 8.67239e-11, No Iterations 2
DILUPBiCGStab:  Solving for e, Initial residual = 0.00421859, Final residual = 6.35836e-10, No Iterations 2
GAMG:  Solving for p_rgh, Initial residual = 0.0134062, Final residual = 0.000101302, No Iterations 3
diagonal:  Solving for rho, Initial residual = 0, Final residual = 0, No Iterations 0
time step continuity errors : sum local = 3.88873e-06, global = 1.98741e-06, cumulative = 0.000609457
GAMG:  Solving for p_rgh, Initial residual = 0.00425905, Final residual = 7.78118e-09, No Iterations 8
diagonal:  Solving for rho, Initial residual = 0, Final residual = 0, No Iterations 0
time step continuity errors : sum local = 1.98751e-06, global = 1.98741e-06, cumulative = 0.000611444
ExecutionTime = 2.62 s  ClockTime = 3 s

Courant Number mean: 0.0136016 max: 0.101343
Time = 47

diagonal:  Solving for rho, Initial residual = 0, Final residual = 0, No Iterations 0
DILUPBiCGStab:  Solving for Ux, Initial residual = 0.0204568, Final residual = 1.46798e-10, No Iterations 2
DILUPBiCGStab:  Solving for Uy, Initial residual = 0.036768, Final residual = 8.51435e-11, No Iterations 2
DILUPBiCGStab:  Solving for e, Initial residual = 0.00413107, Final residual = 6.19838e-10, No Iterations 2
GAMG:  Solving for p_rgh, Initial residual = 0.0132038, Final residual = 9.87615e-05, No Iterations 3
diagonal:  Solving for rho, Initial residual = 0, Final residual = 0, No Iterations 0
time step continuity errors : sum local = 3.81149e-06, global = 1.96305e-06, cumulative = 0.000613408
GAMG:  Solving for p_rgh, Initial residual = 0.00424104, Final residual = 7.75616e-09, No Iterations 8
diagonal:  Solving for rho, Initial residual = 0, Final residual = 0, No Iterations 0
time step continuity errors : sum local = 1.96315e-06, global = 1.96305e-06, cumulative = 0.000615371
ExecutionTime = 2.67 s  ClockTime = 3 s

Courant Number mean: 0.0138428 max: 0.102516
Time = 48

diagonal:  Solving for rho, Initial residual = 0, Final residual = 0, No Iterations 0
DILUPBiCGStab:  Solving for Ux, Initial residual = 0.0204219, Final residual = 1.51918e-10, No Iterations 2
DILUPBiCGStab:  Solving for Uy, Initial residual = 0.0360793, Final residual = 8.43745e-11, No Iterations 2
DILUPBiCGStab:  Solving for e, Initial residual = 0.00404761, Final residual = 6.05153e-10, No Iterations 2
GAMG:  Solving for p_rgh, Initial residual = 0.0130826, Final residual = 9.61377e-05, No Iterations 3
diagonal:  Solving for rho, Initial residual = 0, Final residual = 0, No Iterations 0
time step continuity errors : sum local = 3.7345e-06, global = 1.93941e-06, cumulative = 0.00061731
GAMG:  Solving for p_rgh, Initial residual = 0.00422628, Final residual = 7.70551e-09, No Iterations 8
diagonal:  Solving for rho, Initial residual = 0, Final residual = 0, No Iterations 0
time step continuity errors : sum local = 1.93951e-06, global = 1.93941e-06, cumulative = 0.000619249
ExecutionTime = 2.72 s  ClockTime = 3 s

Courant Number mean: 0.0141029 max: 0.103793
Time = 49

diagonal:  Solving for rho, Initial residual = 0, Final residual = 0, No Iterations 0
DILUPBiCGStab:  Solving for Ux, Initial residual = 0.0203836, Final residual = 1.5738e-10, No Iterations 2
DILUPBiCGStab:  Solving for Uy, Initial residual = 0.0354092, Final residual = 8.43826e-11, No Iterations 2
DILUPBiCGStab:  Solving for e, Initial residual = 0.00396828, Final residual = 5.91991e-10, No Iterations 2
GAMG:  Solving for p_rgh, Initial residual = 0.0129675, Final residual = 9.37564e-05, No Iterations 3
diagonal:  Solving for rho, Initial residual = 0, Final residual = 0, No Iterations 0
time step continuity errors : sum local = 3.66291e-06, global = 1.91644e-06, cumulative = 0.000621166
GAMG:  Solving for p_rgh, Initial residual = 0.00420702, Final residual = 7.66601e-09, No Iterations 8
diagonal:  Solving for rho, Initial residual = 0, Final residual = 0, No Iterations 0
time step continuity errors : sum local = 1.91654e-06, global = 1.91644e-06, cumulative = 0.000623082
ExecutionTime = 2.77 s  ClockTime = 3 s

Courant Number mean: 0.0143817 max: 0.105172
Time = 50

diagonal:  Solving for rho, Initial residual = 0, Final residual = 0, No Iterations 0
DILUPBiCGStab:  Solving for Ux, Initial residual = 0.0203366, Final residual = 1.63321e-10, No Iterations 2
DILUPBiCGStab:  Solving for Uy, Initial residual = 0.0347731, Final residual = 8.53542e-11, No Iterations 2
DILUPBiCGStab:  Solving for e, Initial residual = 0.00389342, Final residual = 5.80306e-10, No Iterations 2
GAMG:  Solving for p_rgh, Initial residual = 0.0128637, Final residual = 9.13846e-05, No Iterations 3
diagonal:  Solving for rho, Initial residual = 0, Final residual = 0, No Iterations 0
time step continuity errors : sum local = 3.59331e-06, global = 1.89411e-06, cumulative = 0.000624976
GAMG:  Solving for p_rgh, Initial residual = 0.00419337, Final residual = 7.63316e-09, No Iterations 8
diagonal:  Solving for rho, Initial residual = 0, Final residual = 0, No Iterations 0
time step continuity errors : sum local = 1.8942e-06, global = 1.89411e-06, cumulative = 0.000626871
ExecutionTime = 2.82 s  ClockTime = 3 s

streamLine streamlines write:
    seeded 24 particles
    Tracks:48
    Total samples:60321
Courant Number mean: 0.0146783 max: 0.106651
Time = 51

diagonal:  Solving for rho, Initial residual = 0, Final residual = 0, No Iterations 0
DILUPBiCGStab:  Solving for Ux, Initial residual = 0.0202977, Final residual = 1.69244e-10, No Iterations 2
DILUPBiCGStab:  Solving for Uy, Initial residual = 0.0341524, Final residual = 8.69575e-11, No Iterations 2
DILUPBiCGStab:  Solving for e, Initial residual = 0.00382271, Final residual = 5.70002e-10, No Iterations 2
GAMG:  Solving for p_rgh, Initial residual = 0.0127681, Final residual = 8.89378e-05, No Iterations 3
diagonal:  Solving for rho, Initial residual = 0, Final residual = 0, No Iterations 0
time step continuity errors : sum local = 3.52423e-06, global = 1.87237e-06, cumulative = 0.000628743
GAMG:  Solving for p_rgh, Initial residual = 0.0041776, Final residual = 7.58479e-09, No Iterations 8
diagonal:  Solving for rho, Initial residual = 0, Final residual = 0, No Iterations 0
time step continuity errors : sum local = 1.87247e-06, global = 1.87237e-06, cumulative = 0.000630615
ExecutionTime = 4.7 s  ClockTime = 5 s

Courant Number mean: 0.0149933 max: 0.108214
Time = 52

diagonal:  Solving for rho, Initial residual = 0, Final residual = 0, No Iterations 0
DILUPBiCGStab:  Solving for Ux, Initial residual = 0.0202529, Final residual = 1.74754e-10, No Iterations 2
DILUPBiCGStab:  Solving for Uy, Initial residual = 0.0335531, Final residual = 8.92365e-11, No Iterations 2
DILUPBiCGStab:  Solving for e, Initial residual = 0.00376029, Final residual = 5.60948e-10, No Iterations 2
GAMG:  Solving for p_rgh, Initial residual = 0.0126927, Final residual = 8.66055e-05, No Iterations 3
diagonal:  Solving for rho, Initial residual = 0, Final residual = 0, No Iterations 0
time step continuity errors : sum local = 3.45885e-06, global = 1.8512e-06, cumulative = 0.000632466
GAMG:  Solving for p_rgh, Initial residual = 0.00416198, Final residual = 7.53041e-09, No Iterations 8
diagonal:  Solving for rho, Initial residual = 0, Final residual = 0, No Iterations 0
time step continuity errors : sum local = 1.8513e-06, global = 1.8512e-06, cumulative = 0.000634318
ExecutionTime = 4.75 s  ClockTime = 5 s

Courant Number mean: 0.0153254 max: 0.109861
Time = 53

diagonal:  Solving for rho, Initial residual = 0, Final residual = 0, No Iterations 0
DILUPBiCGStab:  Solving for Ux, Initial residual = 0.0202175, Final residual = 1.80047e-10, No Iterations 2
DILUPBiCGStab:  Solving for Uy, Initial residual = 0.0330602, Final residual = 9.21377e-11, No Iterations 2
DILUPBiCGStab:  Solving for e, Initial residual = 0.00370099, Final residual = 5.53414e-10, No Iterations 2
GAMG:  Solving for p_rgh, Initial residual = 0.0126267, Final residual = 8.44192e-05, No Iterations 3
diagonal:  Solving for rho, Initial residual = 0, Final residual = 0, No Iterations 0
time step continuity errors : sum local = 3.39751e-06, global = 1.83058e-06, cumulative = 0.000636148
GAMG:  Solving for p_rgh, Initial residual = 0.00414788, Final residual = 7.49327e-09, No Iterations 8
diagonal:  Solving for rho, Initial residual = 0, Final residual = 0, No Iterations 0
time step continuity errors : sum local = 1.83067e-06, global = 1.83058e-06, cumulative = 0.000637979
ExecutionTime = 4.8 s  ClockTime = 5 s

Courant Number mean: 0.0156748 max: 0.111597
Time = 54

diagonal:  Solving for rho, Initial residual = 0, Final residual = 0, No Iterations 0
DILUPBiCGStab:  Solving for Ux, Initial residual = 0.0201818, Final residual = 1.84919e-10, No Iterations 2
DILUPBiCGStab:  Solving for Uy, Initial residual = 0.0325766, Final residual = 9.5641e-11, No Iterations 2
DILUPBiCGStab:  Solving for e, Initial residual = 0.00364424, Final residual = 5.4718e-10, No Iterations 2
GAMG:  Solving for p_rgh, Initial residual = 0.0125585, Final residual = 8.2193e-05, No Iterations 3
diagonal:  Solving for rho, Initial residual = 0, Final residual = 0, No Iterations 0
time step continuity errors : sum local = 3.33689e-06, global = 1.81046e-06, cumulative = 0.000639789
GAMG:  Solving for p_rgh, Initial residual = 0.0041348, Final residual = 7.43518e-09, No Iterations 8
diagonal:  Solving for rho, Initial residual = 0, Final residual = 0, No Iterations 0
time step continuity errors : sum local = 1.81055e-06, global = 1.81046e-06, cumulative = 0.0006416
ExecutionTime = 4.85 s  ClockTime = 5 s

Courant Number mean: 0.0160416 max: 0.113421
Time = 55

diagonal:  Solving for rho, Initial residual = 0, Final residual = 0, No Iterations 0
DILUPBiCGStab:  Solving for Ux, Initial residual = 0.0201402, Final residual = 1.8914e-10, No Iterations 2
DILUPBiCGStab:  Solving for Uy, Initial residual = 0.032091, Final residual = 9.97651e-11, No Iterations 2
DILUPBiCGStab:  Solving for e, Initial residual = 0.00359076, Final residual = 5.41953e-10, No Iterations 2
GAMG:  Solving for p_rgh, Initial residual = 0.0124933, Final residual = 8.00503e-05, No Iterations 3
diagonal:  Solving for rho, Initial residual = 0, Final residual = 0, No Iterations 0
time step continuity errors : sum local = 3.27882e-06, global = 1.79082e-06, cumulative = 0.000643391
GAMG:  Solving for p_rgh, Initial residual = 0.00412434, Final residual = 7.38226e-09, No Iterations 8
diagonal:  Solving for rho, Initial residual = 0, Final residual = 0, No Iterations 0
time step continuity errors : sum local = 1.79092e-06, global = 1.79082e-06, cumulative = 0.000645181
ExecutionTime = 4.9 s  ClockTime = 5 s

Courant Number mean: 0.016426 max: 0.115332
Time = 56

diagonal:  Solving for rho, Initial residual = 0, Final residual = 0, No Iterations 0
DILUPBiCGStab:  Solving for Ux, Initial residual = 0.0200901, Final residual = 1.9279e-10, No Iterations 2
DILUPBiCGStab:  Solving for Uy, Initial residual = 0.0316088, Final residual = 1.04391e-10, No Iterations 2
DILUPBiCGStab:  Solving for e, Initial residual = 0.0035405, Final residual = 5.37531e-10, No Iterations 2
GAMG:  Solving for p_rgh, Initial residual = 0.0124366, Final residual = 7.79484e-05, No Iterations 3
diagonal:  Solving for rho, Initial residual = 0, Final residual = 0, No Iterations 0
time step continuity errors : sum local = 3.22265e-06, global = 1.77165e-06, cumulative = 0.000646953
GAMG:  Solving for p_rgh, Initial residual = 0.00411649, Final residual = 7.32779e-09, No Iterations 8
diagonal:  Solving for rho, Initial residual = 0, Final residual = 0, No Iterations 0
time step continuity errors : sum local = 1.77175e-06, global = 1.77165e-06, cumulative = 0.000648725
ExecutionTime = 4.95 s  ClockTime = 5 s

Courant Number mean: 0.0168278 max: 0.117328
Time = 57

diagonal:  Solving for rho, Initial residual = 0, Final residual = 0, No Iterations 0
DILUPBiCGStab:  Solving for Ux, Initial residual = 0.0200345, Final residual = 1.9586e-10, No Iterations 2
DILUPBiCGStab:  Solving for Uy, Initial residual = 0.0311289, Final residual = 1.09564e-10, No Iterations 2
DILUPBiCGStab:  Solving for e, Initial residual = 0.00349536, Final residual = 5.34523e-10, No Iterations 2
GAMG:  Solving for p_rgh, Initial residual = 0.0123795, Final residual = 7.58418e-05, No Iterations 3
diagonal:  Solving for rho, Initial residual = 0, Final residual = 0, No Iterations 0
time step continuity errors : sum local = 3.16844e-06, global = 1.75293e-06, cumulative = 0.000650478
GAMG:  Solving for p_rgh, Initial residual = 0.00410587, Final residual = 7.26176e-09, No Iterations 8
diagonal:  Solving for rho, Initial residual = 0, Final residual = 0, No Iterations 0
time step continuity errors : sum local = 1.75302e-06, global = 1.75293e-06, cumulative = 0.000652231
ExecutionTime = 5 s  ClockTime = 5 s

Courant Number mean: 0.0172467 max: 0.119395
Time = 58

diagonal:  Solving for rho, Initial residual = 0, Final residual = 0, No Iterations 0
DILUPBiCGStab:  Solving for Ux, Initial residual = 0.0199779, Final residual = 1.98055e-10, No Iterations 2
DILUPBiCGStab:  Solving for Uy, Initial residual = 0.0306557, Final residual = 1.15147e-10, No Iterations 2
DILUPBiCGStab:  Solving for e, Initial residual = 0.00345439, Final residual = 5.32489e-10, No Iterations 2
GAMG:  Solving for p_rgh, Initial residual = 0.0123164, Final residual = 7.37304e-05, No Iterations 3
diagonal:  Solving for rho, Initial residual = 0, Final residual = 0, No Iterations 0
time step continuity errors : sum local = 3.11679e-06, global = 1.73462e-06, cumulative = 0.000653965
GAMG:  Solving for p_rgh, Initial residual = 0.00409015, Final residual = 7.18589e-09, No Iterations 8
diagonal:  Solving for rho, Initial residual = 0, Final residual = 0, No Iterations 0
time step continuity errors : sum local = 1.73471e-06, global = 1.73462e-06, cumulative = 0.0006557
ExecutionTime = 5.04 s  ClockTime = 5 s

Courant Number mean: 0.017683 max: 0.121637
Time = 59

diagonal:  Solving for rho, Initial residual = 0, Final residual = 0, No Iterations 0
DILUPBiCGStab:  Solving for Ux, Initial residual = 0.0199188, Final residual = 1.9961e-10, No Iterations 2
DILUPBiCGStab:  Solving for Uy, Initial residual = 0.0301852, Final residual = 1.209e-10, No Iterations 2
DILUPBiCGStab:  Solving for e, Initial residual = 0.0034192, Final residual = 5.31555e-10, No Iterations 2
GAMG:  Solving for p_rgh, Initial residual = 0.0122401, Final residual = 7.15428e-05, No Iterations 3
diagonal:  Solving for rho, Initial residual = 0, Final residual = 0, No Iterations 0
time step continuity errors : sum local = 3.06663e-06, global = 1.71672e-06, cumulative = 0.000657417
GAMG:  Solving for p_rgh, Initial residual = 0.00407072, Final residual = 7.0773e-09, No Iterations 8
diagonal:  Solving for rho, Initial residual = 0, Final residual = 0, No Iterations 0
time step continuity errors : sum local = 1.71681e-06, global = 1.71672e-06, cumulative = 0.000659133
ExecutionTime = 5.09 s  ClockTime = 5 s

Courant Number mean: 0.0181366 max: 0.123988
Time = 60

diagonal:  Solving for rho, Initial residual = 0, Final residual = 0, No Iterations 0
DILUPBiCGStab:  Solving for Ux, Initial residual = 0.0198537, Final residual = 2.00474e-10, No Iterations 2
DILUPBiCGStab:  Solving for Uy, Initial residual = 0.029715, Final residual = 1.26807e-10, No Iterations 2
DILUPBiCGStab:  Solving for e, Initial residual = 0.00338946, Final residual = 5.31652e-10, No Iterations 2
GAMG:  Solving for p_rgh, Initial residual = 0.0121662, Final residual = 6.94061e-05, No Iterations 3
diagonal:  Solving for rho, Initial residual = 0, Final residual = 0, No Iterations 0
time step continuity errors : sum local = 3.01871e-06, global = 1.69921e-06, cumulative = 0.000660832
GAMG:  Solving for p_rgh, Initial residual = 0.00405431, Final residual = 6.98489e-09, No Iterations 8
diagonal:  Solving for rho, Initial residual = 0, Final residual = 0, No Iterations 0
time step continuity errors : sum local = 1.6993e-06, global = 1.69921e-06, cumulative = 0.000662532
ExecutionTime = 5.14 s  ClockTime = 5 s

Courant Number mean: 0.0186082 max: 0.126431
Time = 61

diagonal:  Solving for rho, Initial residual = 0, Final residual = 0, No Iterations 0
DILUPBiCGStab:  Solving for Ux, Initial residual = 0.019784, Final residual = 2.00771e-10, No Iterations 2
DILUPBiCGStab:  Solving for Uy, Initial residual = 0.0292533, Final residual = 1.32725e-10, No Iterations 2
DILUPBiCGStab:  Solving for e, Initial residual = 0.00336453, Final residual = 5.33035e-10, No Iterations 2
GAMG:  Solving for p_rgh, Initial residual = 0.012103, Final residual = 6.73385e-05, No Iterations 3
diagonal:  Solving for rho, Initial residual = 0, Final residual = 0, No Iterations 0
time step continuity errors : sum local = 2.97255e-06, global = 1.68207e-06, cumulative = 0.000664214
GAMG:  Solving for p_rgh, Initial residual = 0.00403833, Final residual = 6.88322e-09, No Iterations 8
diagonal:  Solving for rho, Initial residual = 0, Final residual = 0, No Iterations 0
time step continuity errors : sum local = 1.68216e-06, global = 1.68207e-06, cumulative = 0.000665896
ExecutionTime = 5.19 s  ClockTime = 5 s

Courant Number mean: 0.0190974 max: 0.128963
Time = 62

diagonal:  Solving for rho, Initial residual = 0, Final residual = 0, No Iterations 0
DILUPBiCGStab:  Solving for Ux, Initial residual = 0.0197045, Final residual = 2.00789e-10, No Iterations 2
DILUPBiCGStab:  Solving for Uy, Initial residual = 0.0287998, Final residual = 1.38386e-10, No Iterations 2
DILUPBiCGStab:  Solving for e, Initial residual = 0.00334206, Final residual = 5.35542e-10, No Iterations 2
GAMG:  Solving for p_rgh, Initial residual = 0.0120497, Final residual = 6.5323e-05, No Iterations 3
diagonal:  Solving for rho, Initial residual = 0, Final residual = 0, No Iterations 0
time step continuity errors : sum local = 2.92795e-06, global = 1.6653e-06, cumulative = 0.000667561
GAMG:  Solving for p_rgh, Initial residual = 0.00402485, Final residual = 6.7804e-09, No Iterations 8
diagonal:  Solving for rho, Initial residual = 0, Final residual = 0, No Iterations 0
time step continuity errors : sum local = 1.66538e-06, global = 1.6653e-06, cumulative = 0.000669226
ExecutionTime = 5.24 s  ClockTime = 5 s

Courant Number mean: 0.0196046 max: 0.131585
Time = 63

diagonal:  Solving for rho, Initial residual = 0, Final residual = 0, No Iterations 0
DILUPBiCGStab:  Solving for Ux, Initial residual = 0.0196232, Final residual = 2.0053e-10, No Iterations 2
DILUPBiCGStab:  Solving for Uy, Initial residual = 0.0283553, Final residual = 1.43768e-10, No Iterations 2
DILUPBiCGStab:  Solving for e, Initial residual = 0.00332128, Final residual = 5.39e-10, No Iterations 2
GAMG:  Solving for p_rgh, Initial residual = 0.0120057, Final residual = 6.34333e-05, No Iterations 3
diagonal:  Solving for rho, Initial residual = 0, Final residual = 0, No Iterations 0
time step continuity errors : sum local = 2.88578e-06, global = 1.64887e-06, cumulative = 0.000670875
GAMG:  Solving for p_rgh, Initial residual = 0.00401438, Final residual = 6.68242e-09, No Iterations 8
diagonal:  Solving for rho, Initial residual = 0, Final residual = 0, No Iterations 0
time step continuity errors : sum local = 1.64895e-06, global = 1.64887e-06, cumulative = 0.000672524
ExecutionTime = 5.29 s  ClockTime = 5 s

Courant Number mean: 0.0201307 max: 0.134294
Time = 64

diagonal:  Solving for rho, Initial residual = 0, Final residual = 0, No Iterations 0
DILUPBiCGStab:  Solving for Ux, Initial residual = 0.0195359, Final residual = 1.99997e-10, No Iterations 2
DILUPBiCGStab:  Solving for Uy, Initial residual = 0.027917, Final residual = 1.48799e-10, No Iterations 2
DILUPBiCGStab:  Solving for e, Initial residual = 0.00330218, Final residual = 5.43838e-10, No Iterations 2
GAMG:  Solving for p_rgh, Initial residual = 0.0119683, Final residual = 6.16137e-05, No Iterations 3
diagonal:  Solving for rho, Initial residual = 0, Final residual = 0, No Iterations 0
time step continuity errors : sum local = 2.8451e-06, global = 1.63277e-06, cumulative = 0.000674157
GAMG:  Solving for p_rgh, Initial residual = 0.00400567, Final residual = 6.58513e-09, No Iterations 8
diagonal:  Solving for rho, Initial residual = 0, Final residual = 0, No Iterations 0
time step continuity errors : sum local = 1.63286e-06, global = 1.63277e-06, cumulative = 0.00067579
ExecutionTime = 5.34 s  ClockTime = 6 s

Courant Number mean: 0.0206749 max: 0.13709
Time = 65

diagonal:  Solving for rho, Initial residual = 0, Final residual = 0, No Iterations 0
DILUPBiCGStab:  Solving for Ux, Initial residual = 0.0194446, Final residual = 1.99428e-10, No Iterations 2
DILUPBiCGStab:  Solving for Uy, Initial residual = 0.0274843, Final residual = 1.53356e-10, No Iterations 2
DILUPBiCGStab:  Solving for e, Initial residual = 0.00328711, Final residual = 5.49869e-10, No Iterations 2
GAMG:  Solving for p_rgh, Initial residual = 0.0119428, Final residual = 5.98681e-05, No Iterations 3
diagonal:  Solving for rho, Initial residual = 0, Final residual = 0, No Iterations 0
time step continuity errors : sum local = 2.80613e-06, global = 1.61701e-06, cumulative = 0.000677407
GAMG:  Solving for p_rgh, Initial residual = 0.00399737, Final residual = 6.48401e-09, No Iterations 8
diagonal:  Solving for rho, Initial residual = 0, Final residual = 0, No Iterations 0
time step continuity errors : sum local = 1.61709e-06, global = 1.61701e-06, cumulative = 0.000679024
ExecutionTime = 5.39 s  ClockTime = 6 s

Courant Number mean: 0.0212373 max: 0.139971
Time = 66

diagonal:  Solving for rho, Initial residual = 0, Final residual = 0, No Iterations 0
DILUPBiCGStab:  Solving for Ux, Initial residual = 0.0193492, Final residual = 1.98805e-10, No Iterations 2
DILUPBiCGStab:  Solving for Uy, Initial residual = 0.0270575, Final residual = 1.57376e-10, No Iterations 2
DILUPBiCGStab:  Solving for e, Initial residual = 0.00327531, Final residual = 5.57125e-10, No Iterations 2
GAMG:  Solving for p_rgh, Initial residual = 0.0119182, Final residual = 5.82011e-05, No Iterations 3
diagonal:  Solving for rho, Initial residual = 0, Final residual = 0, No Iterations 0
time step continuity errors : sum local = 2.7689e-06, global = 1.60156e-06, cumulative = 0.000680625
GAMG:  Solving for p_rgh, Initial residual = 0.00399504, Final residual = 6.37403e-09, No Iterations 8
diagonal:  Solving for rho, Initial residual = 0, Final residual = 0, No Iterations 0
time step continuity errors : sum local = 1.60164e-06, global = 1.60156e-06, cumulative = 0.000682227
ExecutionTime = 5.44 s  ClockTime = 6 s

Courant Number mean: 0.0218184 max: 0.142935
Time = 67

diagonal:  Solving for rho, Initial residual = 0, Final residual = 0, No Iterations 0
DILUPBiCGStab:  Solving for Ux, Initial residual = 0.0192514, Final residual = 1.98216e-10, No Iterations 2
DILUPBiCGStab:  Solving for Uy, Initial residual = 0.0266372, Final residual = 1.60855e-10, No Iterations 2
DILUPBiCGStab:  Solving for e, Initial residual = 0.00326674, Final residual = 5.66241e-10, No Iterations 2
GAMG:  Solving for p_rgh, Initial residual = 0.0118949, Final residual = 5.67011e-05, No Iterations 3
diagonal:  Solving for rho, Initial residual = 0, Final residual = 0, No Iterations 0
time step continuity errors : sum local = 2.73515e-06, global = 1.58641e-06, cumulative = 0.000683813
GAMG:  Solving for p_rgh, Initial residual = 0.00399269, Final residual = 6.27598e-09, No Iterations 8
diagonal:  Solving for rho, Initial residual = 0, Final residual = 0, No Iterations 0
time step continuity errors : sum local = 1.58649e-06, global = 1.58641e-06, cumulative = 0.0006854
ExecutionTime = 5.49 s  ClockTime = 6 s

Courant Number mean: 0.0224183 max: 0.145982
Time = 68

diagonal:  Solving for rho, Initial residual = 0, Final residual = 0, No Iterations 0
DILUPBiCGStab:  Solving for Ux, Initial residual = 0.0191462, Final residual = 1.97652e-10, No Iterations 2
DILUPBiCGStab:  Solving for Uy, Initial residual = 0.0262221, Final residual = 1.63708e-10, No Iterations 2
DILUPBiCGStab:  Solving for e, Initial residual = 0.00325998, Final residual = 5.75894e-10, No Iterations 2
GAMG:  Solving for p_rgh, Initial residual = 0.0118959, Final residual = 5.52217e-05, No Iterations 3
diagonal:  Solving for rho, Initial residual = 0, Final residual = 0, No Iterations 0
time step continuity errors : sum local = 2.7025e-06, global = 1.57157e-06, cumulative = 0.000686971
GAMG:  Solving for p_rgh, Initial residual = 0.00399138, Final residual = 6.15502e-09, No Iterations 8
diagonal:  Solving for rho, Initial residual = 0, Final residual = 0, No Iterations 0
time step continuity errors : sum local = 1.57165e-06, global = 1.57157e-06, cumulative = 0.000688543
ExecutionTime = 5.54 s  ClockTime = 6 s

Courant Number mean: 0.0230371 max: 0.14911
Time = 69

diagonal:  Solving for rho, Initial residual = 0, Final residual = 0, No Iterations 0
DILUPBiCGStab:  Solving for Ux, Initial residual = 0.0190382, Final residual = 1.97543e-10, No Iterations 2
DILUPBiCGStab:  Solving for Uy, Initial residual = 0.0258118, Final residual = 1.66037e-10, No Iterations 2
DILUPBiCGStab:  Solving for e, Initial residual = 0.00325458, Final residual = 5.86814e-10, No Iterations 2
GAMG:  Solving for p_rgh, Initial residual = 0.0119075, Final residual = 5.39147e-05, No Iterations 3
diagonal:  Solving for rho, Initial residual = 0, Final residual = 0, No Iterations 0
time step continuity errors : sum local = 2.6731e-06, global = 1.55702e-06, cumulative = 0.0006901
GAMG:  Solving for p_rgh, Initial residual = 0.00399099, Final residual = 6.05384e-09, No Iterations 8
diagonal:  Solving for rho, Initial residual = 0, Final residual = 0, No Iterations 0
time step continuity errors : sum local = 1.55709e-06, global = 1.55702e-06, cumulative = 0.000691657
ExecutionTime = 5.59 s  ClockTime = 6 s

Courant Number mean: 0.0236757 max: 0.152317
Time = 70

diagonal:  Solving for rho, Initial residual = 0, Final residual = 0, No Iterations 0
DILUPBiCGStab:  Solving for Ux, Initial residual = 0.0189268, Final residual = 1.97849e-10, No Iterations 2
DILUPBiCGStab:  Solving for Uy, Initial residual = 0.0254061, Final residual = 1.6783e-10, No Iterations 2
DILUPBiCGStab:  Solving for e, Initial residual = 0.00325051, Final residual = 5.99156e-10, No Iterations 2
GAMG:  Solving for p_rgh, Initial residual = 0.0119298, Final residual = 5.26395e-05, No Iterations 3
diagonal:  Solving for rho, Initial residual = 0, Final residual = 0, No Iterations 0
time step continuity errors : sum local = 2.6446e-06, global = 1.54275e-06, cumulative = 0.0006932
GAMG:  Solving for p_rgh, Initial residual = 0.00399082, Final residual = 5.93562e-09, No Iterations 8
diagonal:  Solving for rho, Initial residual = 0, Final residual = 0, No Iterations 0
time step continuity errors : sum local = 1.54282e-06, global = 1.54275e-06, cumulative = 0.000694742
ExecutionTime = 5.65 s  ClockTime = 6 s

Courant Number mean: 0.024334 max: 0.155601
Time = 71

diagonal:  Solving for rho, Initial residual = 0, Final residual = 0, No Iterations 0
DILUPBiCGStab:  Solving for Ux, Initial residual = 0.0188125, Final residual = 1.98342e-10, No Iterations 2
DILUPBiCGStab:  Solving for Uy, Initial residual = 0.0250112, Final residual = 1.69126e-10, No Iterations 2
DILUPBiCGStab:  Solving for e, Initial residual = 0.0032472, Final residual = 6.13065e-10, No Iterations 2
GAMG:  Solving for p_rgh, Initial residual = 0.0119566, Final residual = 5.15039e-05, No Iterations 3
diagonal:  Solving for rho, Initial residual = 0, Final residual = 0, No Iterations 0
time step continuity errors : sum local = 2.61878e-06, global = 1.52876e-06, cumulative = 0.000696271
GAMG:  Solving for p_rgh, Initial residual = 0.0039918, Final residual = 5.82235e-09, No Iterations 8
diagonal:  Solving for rho, Initial residual = 0, Final residual = 0, No Iterations 0
time step continuity errors : sum local = 1.52883e-06, global = 1.52876e-06, cumulative = 0.0006978
ExecutionTime = 5.7 s  ClockTime = 6 s

Courant Number mean: 0.0250118 max: 0.158961
Time = 72

diagonal:  Solving for rho, Initial residual = 0, Final residual = 0, No Iterations 0
DILUPBiCGStab:  Solving for Ux, Initial residual = 0.0186939, Final residual = 1.99042e-10, No Iterations 2
DILUPBiCGStab:  Solving for Uy, Initial residual = 0.0246297, Final residual = 1.7003e-10, No Iterations 2
DILUPBiCGStab:  Solving for e, Initial residual = 0.00324557, Final residual = 6.2906e-10, No Iterations 2
GAMG:  Solving for p_rgh, Initial residual = 0.0119849, Final residual = 5.05262e-05, No Iterations 3
[...]
GAMG:  Solving for p_rgh, Initial residual = 0.0040636, Final residual = 4.79664e-09, No Iterations 8
diagonal:  Solving for rho, Initial residual = 0, Final residual = 0, No Iterations 0
time step continuity errors : sum local = 1.39199e-06, global = 1.39193e-06, cumulative = 0.000729736
ExecutionTime = 6.24 s  ClockTime = 6 s

Courant Number mean: 0.0337948 max: 0.200039
Time = 83

diagonal:  Solving for rho, Initial residual = 0, Final residual = 0, No Iterations 0
DILUPBiCGStab:  Solving for Ux, Initial residual = 0.0172672, Final residual = 2.26073e-10, No Iterations 2
DILUPBiCGStab:  Solving for Uy, Initial residual = 0.0210292, Final residual = 1.7211e-10, No Iterations 2
DILUPBiCGStab:  Solving for e, Initial residual = 0.00331831, Final residual = 2.12917e-09, No Iterations 2
GAMG:  Solving for p_rgh, Initial residual = 0.0125859, Final residual = 4.49125e-05, No Iterations 3
diagonal:  Solving for rho, Initial residual = 0, Final residual = 0, No Iterations 0
time step continuity errors : sum local = 2.46177e-06, global = 1.38095e-06, cumulative = 0.000731116
GAMG:  Solving for p_rgh, Initial residual = 0.0040729, Final residual = 4.72162e-09, No Iterations 8
diagonal:  Solving for rho, Initial residual = 0, Final residual = 0, No Iterations 0
time step continuity errors : sum local = 1.38101e-06, global = 1.38095e-06, cumulative = 0.000732497
ExecutionTime = 6.29 s  ClockTime = 6 s

Courant Number mean: 0.0347168 max: 0.204048
Time = 84

diagonal:  Solving for rho, Initial residual = 0, Final residual = 0, No Iterations 0
DILUPBiCGStab:  Solving for Ux, Initial residual = 0.0171166, Final residual = 2.29962e-10, No Iterations 2
DILUPBiCGStab:  Solving for Uy, Initial residual = 0.0207411, Final residual = 1.72983e-10, No Iterations 2
DILUPBiCGStab:  Solving for e, Initial residual = 0.00333009, Final residual = 1.48674e-09, No Iterations 2
GAMG:  Solving for p_rgh, Initial residual = 0.0126613, Final residual = 4.46746e-05, No Iterations 3
diagonal:  Solving for rho, Initial residual = 0, Final residual = 0, No Iterations 0
time step continuity errors : sum local = 2.45812e-06, global = 1.3702e-06, cumulative = 0.000733868
GAMG:  Solving for p_rgh, Initial residual = 0.00408242, Final residual = 4.65152e-09, No Iterations 8
diagonal:  Solving for rho, Initial residual = 0, Final residual = 0, No Iterations 0
time step continuity errors : sum local = 1.37026e-06, global = 1.3702e-06, cumulative = 0.000735238
ExecutionTime = 6.34 s  ClockTime = 7 s

Courant Number mean: 0.0356594 max: 0.20808
Time = 85

diagonal:  Solving for rho, Initial residual = 0, Final residual = 0, No Iterations 0
DILUPBiCGStab:  Solving for Ux, Initial residual = 0.0169628, Final residual = 2.33921e-10, No Iterations 2
DILUPBiCGStab:  Solving for Uy, Initial residual = 0.0204558, Final residual = 1.74191e-10, No Iterations 2
DILUPBiCGStab:  Solving for e, Initial residual = 0.00334316, Final residual = 1.22116e-09, No Iterations 2
GAMG:  Solving for p_rgh, Initial residual = 0.0127406, Final residual = 4.4475e-05, No Iterations 3
diagonal:  Solving for rho, Initial residual = 0, Final residual = 0, No Iterations 0
time step continuity errors : sum local = 2.45561e-06, global = 1.35969e-06, cumulative = 0.000736597
GAMG:  Solving for p_rgh, Initial residual = 0.00409201, Final residual = 4.58616e-09, No Iterations 8
diagonal:  Solving for rho, Initial residual = 0, Final residual = 0, No Iterations 0
time step continuity errors : sum local = 1.35974e-06, global = 1.35969e-06, cumulative = 0.000737957
ExecutionTime = 6.39 s  ClockTime = 7 s

Courant Number mean: 0.0366218 max: 0.21213
Time = 86

diagonal:  Solving for rho, Initial residual = 0, Final residual = 0, No Iterations 0
DILUPBiCGStab:  Solving for Ux, Initial residual = 0.0168056, Final residual = 2.37907e-10, No Iterations 2
DILUPBiCGStab:  Solving for Uy, Initial residual = 0.0201723, Final residual = 1.75748e-10, No Iterations 2
DILUPBiCGStab:  Solving for e, Initial residual = 0.00335618, Final residual = 1.10168e-09, No Iterations 2
GAMG:  Solving for p_rgh, Initial residual = 0.0128239, Final residual = 4.42793e-05, No Iterations 3
diagonal:  Solving for rho, Initial residual = 0, Final residual = 0, No Iterations 0
time step continuity errors : sum local = 2.45352e-06, global = 1.34941e-06, cumulative = 0.000739307
GAMG:  Solving for p_rgh, Initial residual = 0.00410134, Final residual = 4.52889e-09, No Iterations 8
diagonal:  Solving for rho, Initial residual = 0, Final residual = 0, No Iterations 0
time step continuity errors : sum local = 1.34946e-06, global = 1.34941e-06, cumulative = 0.000740656
ExecutionTime = 6.44 s  ClockTime = 7 s

Courant Number mean: 0.0376039 max: 0.216192
Time = 87

diagonal:  Solving for rho, Initial residual = 0, Final residual = 0, No Iterations 0
DILUPBiCGStab:  Solving for Ux, Initial residual = 0.0166439, Final residual = 2.41894e-10, No Iterations 2
DILUPBiCGStab:  Solving for Uy, Initial residual = 0.0198922, Final residual = 1.77692e-10, No Iterations 2
DILUPBiCGStab:  Solving for e, Initial residual = 0.00336882, Final residual = 1.0594e-09, No Iterations 2
GAMG:  Solving for p_rgh, Initial residual = 0.0129066, Final residual = 4.41451e-05, No Iterations 3
diagonal:  Solving for rho, Initial residual = 0, Final residual = 0, No Iterations 0
time step continuity errors : sum local = 2.45306e-06, global = 1.33935e-06, cumulative = 0.000741995
GAMG:  Solving for p_rgh, Initial residual = 0.00410978, Final residual = 4.48243e-09, No Iterations 8
diagonal:  Solving for rho, Initial residual = 0, Final residual = 0, No Iterations 0
time step continuity errors : sum local = 1.33941e-06, global = 1.33935e-06, cumulative = 0.000743335
ExecutionTime = 6.48 s  ClockTime = 7 s

Courant Number mean: 0.038605 max: 0.22026
Time = 88

diagonal:  Solving for rho, Initial residual = 0, Final residual = 0, No Iterations 0
DILUPBiCGStab:  Solving for Ux, Initial residual = 0.016478, Final residual = 2.45983e-10, No Iterations 2
DILUPBiCGStab:  Solving for Uy, Initial residual = 0.0196201, Final residual = 1.79973e-10, No Iterations 2
DILUPBiCGStab:  Solving for e, Initial residual = 0.0033817, Final residual = 1.0657e-09, No Iterations 2
GAMG:  Solving for p_rgh, Initial residual = 0.0129896, Final residual = 4.39608e-05, No Iterations 3
diagonal:  Solving for rho, Initial residual = 0, Final residual = 0, No Iterations 0
time step continuity errors : sum local = 2.45175e-06, global = 1.32953e-06, cumulative = 0.000744664
GAMG:  Solving for p_rgh, Initial residual = 0.00411726, Final residual = 4.43274e-09, No Iterations 8
diagonal:  Solving for rho, Initial residual = 0, Final residual = 0, No Iterations 0
time step continuity errors : sum local = 1.32959e-06, global = 1.32953e-06, cumulative = 0.000745994
ExecutionTime = 6.53 s  ClockTime = 7 s

Courant Number mean: 0.0396259 max: 0.224327
Time = 89

diagonal:  Solving for rho, Initial residual = 0, Final residual = 0, No Iterations 0
DILUPBiCGStab:  Solving for Ux, Initial residual = 0.0163081, Final residual = 2.50246e-10, No Iterations 2
DILUPBiCGStab:  Solving for Uy, Initial residual = 0.0193562, Final residual = 1.82606e-10, No Iterations 2
DILUPBiCGStab:  Solving for e, Initial residual = 0.00339426, Final residual = 1.08165e-09, No Iterations 2
GAMG:  Solving for p_rgh, Initial residual = 0.0130759, Final residual = 4.37996e-05, No Iterations 3
diagonal:  Solving for rho, Initial residual = 0, Final residual = 0, No Iterations 0
time step continuity errors : sum local = 2.45132e-06, global = 1.31994e-06, cumulative = 0.000747314
GAMG:  Solving for p_rgh, Initial residual = 0.00412366, Final residual = 4.38987e-09, No Iterations 8
diagonal:  Solving for rho, Initial residual = 0, Final residual = 0, No Iterations 0
time step continuity errors : sum local = 1.31999e-06, global = 1.31994e-06, cumulative = 0.000748634
ExecutionTime = 6.58 s  ClockTime = 7 s

Courant Number mean: 0.0406648 max: 0.228386
Time = 90

diagonal:  Solving for rho, Initial residual = 0, Final residual = 0, No Iterations 0
DILUPBiCGStab:  Solving for Ux, Initial residual = 0.016133, Final residual = 2.54722e-10, No Iterations 2
DILUPBiCGStab:  Solving for Uy, Initial residual = 0.0190951, Final residual = 1.85567e-10, No Iterations 2
DILUPBiCGStab:  Solving for e, Initial residual = 0.00340728, Final residual = 1.12184e-09, No Iterations 2
GAMG:  Solving for p_rgh, Initial residual = 0.0131622, Final residual = 4.36619e-05, No Iterations 3
diagonal:  Solving for rho, Initial residual = 0, Final residual = 0, No Iterations 0
time step continuity errors : sum local = 2.45173e-06, global = 1.31057e-06, cumulative = 0.000749944
GAMG:  Solving for p_rgh, Initial residual = 0.00412941, Final residual = 4.36065e-09, No Iterations 8
diagonal:  Solving for rho, Initial residual = 0, Final residual = 0, No Iterations 0
time step continuity errors : sum local = 1.31063e-06, global = 1.31057e-06, cumulative = 0.000751255
ExecutionTime = 6.63 s  ClockTime = 7 s

Courant Number mean: 0.041723 max: 0.23243
Time = 91

diagonal:  Solving for rho, Initial residual = 0, Final residual = 0, No Iterations 0
DILUPBiCGStab:  Solving for Ux, Initial residual = 0.0159585, Final residual = 2.59018e-10, No Iterations 2
DILUPBiCGStab:  Solving for Uy, Initial residual = 0.018833, Final residual = 1.88792e-10, No Iterations 2
DILUPBiCGStab:  Solving for e, Initial residual = 0.00341994, Final residual = 1.15228e-09, No Iterations 2
GAMG:  Solving for p_rgh, Initial residual = 0.0132526, Final residual = 4.34611e-05, No Iterations 3
diagonal:  Solving for rho, Initial residual = 0, Final residual = 0, No Iterations 0
time step continuity errors : sum local = 2.45099e-06, global = 1.30144e-06, cumulative = 0.000752556
GAMG:  Solving for p_rgh, Initial residual = 0.00413205, Final residual = 4.33431e-09, No Iterations 8
diagonal:  Solving for rho, Initial residual = 0, Final residual = 0, No Iterations 0
time step continuity errors : sum local = 1.30149e-06, global = 1.30144e-06, cumulative = 0.000753858
ExecutionTime = 6.68 s  ClockTime = 7 s

Courant Number mean: 0.0427992 max: 0.236451
Time = 92

diagonal:  Solving for rho, Initial residual = 0, Final residual = 0, No Iterations 0
DILUPBiCGStab:  Solving for Ux, Initial residual = 0.015781, Final residual = 2.63354e-10, No Iterations 2
DILUPBiCGStab:  Solving for Uy, Initial residual = 0.018574, Final residual = 1.92262e-10, No Iterations 2
DILUPBiCGStab:  Solving for e, Initial residual = 0.00343227, Final residual = 1.18817e-09, No Iterations 2
GAMG:  Solving for p_rgh, Initial residual = 0.0133619, Final residual = 4.328e-05, No Iterations 3
diagonal:  Solving for rho, Initial residual = 0, Final residual = 0, No Iterations 0
time step continuity errors : sum local = 2.451e-06, global = 1.29253e-06, cumulative = 0.00075515
GAMG:  Solving for p_rgh, Initial residual = 0.00413972, Final residual = 4.31672e-09, No Iterations 8
diagonal:  Solving for rho, Initial residual = 0, Final residual = 0, No Iterations 0
time step continuity errors : sum local = 1.29258e-06, global = 1.29253e-06, cumulative = 0.000756443
ExecutionTime = 6.73 s  ClockTime = 7 s

Courant Number mean: 0.0438931 max: 0.24044
Time = 93

diagonal:  Solving for rho, Initial residual = 0, Final residual = 0, No Iterations 0
DILUPBiCGStab:  Solving for Ux, Initial residual = 0.0155978, Final residual = 2.67731e-10, No Iterations 2
DILUPBiCGStab:  Solving for Uy, Initial residual = 0.0183126, Final residual = 1.96153e-10, No Iterations 2
DILUPBiCGStab:  Solving for e, Initial residual = 0.00344492, Final residual = 1.23392e-09, No Iterations 2
GAMG:  Solving for p_rgh, Initial residual = 0.0134742, Final residual = 4.30917e-05, No Iterations 3
diagonal:  Solving for rho, Initial residual = 0, Final residual = 0, No Iterations 0
time step continuity errors : sum local = 2.45116e-06, global = 1.28385e-06, cumulative = 0.000757727
GAMG:  Solving for p_rgh, Initial residual = 0.0041479, Final residual = 4.29862e-09, No Iterations 8
diagonal:  Solving for rho, Initial residual = 0, Final residual = 0, No Iterations 0
time step continuity errors : sum local = 1.28391e-06, global = 1.28385e-06, cumulative = 0.00075901
ExecutionTime = 6.78 s  ClockTime = 7 s

Courant Number mean: 0.0450054 max: 0.244392
Time = 94

diagonal:  Solving for rho, Initial residual = 0, Final residual = 0, No Iterations 0
DILUPBiCGStab:  Solving for Ux, Initial residual = 0.0154125, Final residual = 2.71982e-10, No Iterations 2
DILUPBiCGStab:  Solving for Uy, Initial residual = 0.0180533, Final residual = 2.00754e-10, No Iterations 2
DILUPBiCGStab:  Solving for e, Initial residual = 0.0034565, Final residual = 1.29186e-09, No Iterations 2
GAMG:  Solving for p_rgh, Initial residual = 0.013574, Final residual = 4.30924e-05, No Iterations 3
diagonal:  Solving for rho, Initial residual = 0, Final residual = 0, No Iterations 0
time step continuity errors : sum local = 2.456e-06, global = 1.2754e-06, cumulative = 0.000760286
GAMG:  Solving for p_rgh, Initial residual = 0.00415299, Final residual = 4.28427e-09, No Iterations 8
diagonal:  Solving for rho, Initial residual = 0, Final residual = 0, No Iterations 0
time step continuity errors : sum local = 1.27546e-06, global = 1.2754e-06, cumulative = 0.000761561
ExecutionTime = 6.83 s  ClockTime = 7 s

Courant Number mean: 0.0461403 max: 0.248296
Time = 95

diagonal:  Solving for rho, Initial residual = 0, Final residual = 0, No Iterations 0
DILUPBiCGStab:  Solving for Ux, Initial residual = 0.0152172, Final residual = 2.75979e-10, No Iterations 2
DILUPBiCGStab:  Solving for Uy, Initial residual = 0.0178011, Final residual = 2.05554e-10, No Iterations 2
DILUPBiCGStab:  Solving for e, Initial residual = 0.00346727, Final residual = 1.3428e-09, No Iterations 2
GAMG:  Solving for p_rgh, Initial residual = 0.0136488, Final residual = 4.27785e-05, No Iterations 3
diagonal:  Solving for rho, Initial residual = 0, Final residual = 0, No Iterations 0
time step continuity errors : sum local = 2.45365e-06, global = 1.26718e-06, cumulative = 0.000762828
GAMG:  Solving for p_rgh, Initial residual = 0.00415322, Final residual = 4.26931e-09, No Iterations 8
diagonal:  Solving for rho, Initial residual = 0, Final residual = 0, No Iterations 0
time step continuity errors : sum local = 1.26723e-06, global = 1.26718e-06, cumulative = 0.000764096
ExecutionTime = 6.88 s  ClockTime = 7 s

Courant Number mean: 0.047293 max: 0.25214
Time = 96

diagonal:  Solving for rho, Initial residual = 0, Final residual = 0, No Iterations 0
DILUPBiCGStab:  Solving for Ux, Initial residual = 0.0150204, Final residual = 2.799e-10, No Iterations 2
DILUPBiCGStab:  Solving for Uy, Initial residual = 0.0175467, Final residual = 2.093e-10, No Iterations 2
DILUPBiCGStab:  Solving for e, Initial residual = 0.00347882, Final residual = 1.38694e-09, No Iterations 2
GAMG:  Solving for p_rgh, Initial residual = 0.0137426, Final residual = 4.29757e-05, No Iterations 3
diagonal:  Solving for rho, Initial residual = 0, Final residual = 0, No Iterations 0
time step continuity errors : sum local = 2.4644e-06, global = 1.25917e-06, cumulative = 0.000765355
GAMG:  Solving for p_rgh, Initial residual = 0.00415869, Final residual = 4.26713e-09, No Iterations 8
diagonal:  Solving for rho, Initial residual = 0, Final residual = 0, No Iterations 0
time step continuity errors : sum local = 1.25922e-06, global = 1.25917e-06, cumulative = 0.000766614
ExecutionTime = 6.92 s  ClockTime = 7 s

Courant Number mean: 0.0484643 max: 0.255919
Time = 97

diagonal:  Solving for rho, Initial residual = 0, Final residual = 0, No Iterations 0
DILUPBiCGStab:  Solving for Ux, Initial residual = 0.0148155, Final residual = 2.83532e-10, No Iterations 2
DILUPBiCGStab:  Solving for Uy, Initial residual = 0.0172998, Final residual = 2.13809e-10, No Iterations 2
DILUPBiCGStab:  Solving for e, Initial residual = 0.00348941, Final residual = 1.4352e-09, No Iterations 2
GAMG:  Solving for p_rgh, Initial residual = 0.0138334, Final residual = 4.24112e-05, No Iterations 3
diagonal:  Solving for rho, Initial residual = 0, Final residual = 0, No Iterations 0
time step continuity errors : sum local = 2.45678e-06, global = 1.25137e-06, cumulative = 0.000767865
GAMG:  Solving for p_rgh, Initial residual = 0.0041655, Final residual = 4.26043e-09, No Iterations 8
diagonal:  Solving for rho, Initial residual = 0, Final residual = 0, No Iterations 0
time step continuity errors : sum local = 1.25143e-06, global = 1.25137e-06, cumulative = 0.000769117
ExecutionTime = 6.97 s  ClockTime = 7 s

Courant Number mean: 0.0496534 max: 0.259619
Time = 98

diagonal:  Solving for rho, Initial residual = 0, Final residual = 0, No Iterations 0
DILUPBiCGStab:  Solving for Ux, Initial residual = 0.0146139, Final residual = 2.86942e-10, No Iterations 2
DILUPBiCGStab:  Solving for Uy, Initial residual = 0.0170497, Final residual = 2.18239e-10, No Iterations 2
DILUPBiCGStab:  Solving for e, Initial residual = 0.00349844, Final residual = 1.48388e-09, No Iterations 2
GAMG:  Solving for p_rgh, Initial residual = 0.0139368, Final residual = 4.23198e-05, No Iterations 3
diagonal:  Solving for rho, Initial residual = 0, Final residual = 0, No Iterations 0
time step continuity errors : sum local = 2.46094e-06, global = 1.24378e-06, cumulative = 0.00077036
GAMG:  Solving for p_rgh, Initial residual = 0.0041646, Final residual = 4.2522e-09, No Iterations 8
diagonal:  Solving for rho, Initial residual = 0, Final residual = 0, No Iterations 0
time step continuity errors : sum local = 1.24383e-06, global = 1.24378e-06, cumulative = 0.000771604
ExecutionTime = 7.02 s  ClockTime = 7 s

Courant Number mean: 0.0508583 max: 0.263234
Time = 99

diagonal:  Solving for rho, Initial residual = 0, Final residual = 0, No Iterations 0
DILUPBiCGStab:  Solving for Ux, Initial residual = 0.0144099, Final residual = 2.89955e-10, No Iterations 2
DILUPBiCGStab:  Solving for Uy, Initial residual = 0.0168072, Final residual = 2.21934e-10, No Iterations 2
DILUPBiCGStab:  Solving for e, Initial residual = 0.00350549, Final residual = 1.52523e-09, No Iterations 2
GAMG:  Solving for p_rgh, Initial residual = 0.0140413, Final residual = 4.20011e-05, No Iterations 3
diagonal:  Solving for rho, Initial residual = 0, Final residual = 0, No Iterations 0
time step continuity errors : sum local = 2.45996e-06, global = 1.23638e-06, cumulative = 0.000772841
GAMG:  Solving for p_rgh, Initial residual = 0.0041618, Final residual = 4.25521e-09, No Iterations 8
diagonal:  Solving for rho, Initial residual = 0, Final residual = 0, No Iterations 0
time step continuity errors : sum local = 1.23643e-06, global = 1.23638e-06, cumulative = 0.000774077
ExecutionTime = 7.07 s  ClockTime = 7 s

Courant Number mean: 0.0520777 max: 0.266756
Time = 100

diagonal:  Solving for rho, Initial residual = 0, Final residual = 0, No Iterations 0
DILUPBiCGStab:  Solving for Ux, Initial residual = 0.0142031, Final residual = 2.92605e-10, No Iterations 2
DILUPBiCGStab:  Solving for Uy, Initial residual = 0.0165711, Final residual = 2.25359e-10, No Iterations 2
DILUPBiCGStab:  Solving for e, Initial residual = 0.00351126, Final residual = 1.5675e-09, No Iterations 2
GAMG:  Solving for p_rgh, Initial residual = 0.0141327, Final residual = 4.17525e-05, No Iterations 3
diagonal:  Solving for rho, Initial residual = 0, Final residual = 0, No Iterations 0
time step continuity errors : sum local = 2.4609e-06, global = 1.22916e-06, cumulative = 0.000775306
GAMG:  Solving for p_rgh, Initial residual = 0.00415803, Final residual = 4.23796e-09, No Iterations 8
diagonal:  Solving for rho, Initial residual = 0, Final residual = 0, No Iterations 0
time step continuity errors : sum local = 1.22921e-06, global = 1.22916e-06, cumulative = 0.000776535
ExecutionTime = 7.13 s  ClockTime = 7 s

streamLine streamlines write:
    seeded 24 particles
    Tracks:48
    Total samples:23302
End

