/*---------------------------------------------------------------------------*\
  =========                 |
  \\      /  F ield         | OpenFOAM: The Open Source CFD Toolbox
   \\    /   O peration     | Website:  https://openfoam.org
    \\  /    A nd           | Version:  7
     \\/     M anipulation  |
\*---------------------------------------------------------------------------*/
Build  : 7-7dc73e32f723
Exec   : icoFoam
Date   : Nov 08 2020
Time   : 17:59:13
Host   : "DESKTOP-VSJ4QNK"
PID    : 35826
I/O    : uncollated
Case   : /home/anoldfriend/OpenFOAM/anoldfriend-7/run/trainning/101programming/codeStream_BC/my2Delbow_UparabolicInlet_timeDep
nProcs : 1
sigFpe : Enabling floating point exception trapping (FOAM_SIGFPE).
fileModificationChecking : Monitoring run-time modified files using timeStampMaster (fileModificationSkew 10)
allowSystemOperations : Allowing user-supplied system call operations

// * * * * * * * * * * * * * * * * * * * * * * * * * * * * * * * * * * * * * //
Create time

Create mesh for time = 0

Reading transportProperties

Reading field p

Reading field U

Using dynamicCode for patch velocity-inlet-5 on field U at line 39 in "/home/anoldfriend/OpenFOAM/anoldfriend-7/run/trainning/101programming/codeStream_BC/my2Delbow_UparabolicInlet_timeDep/0/U.boundaryField.velocity-inlet-5"
Creating new library in "dynamicCode/parabolicProfile/platforms/linux64GccDPInt32Debug/lib/libparabolicProfile_3c779351346c1c7d8cec552eeef3538ceb6ac134.so"
Invoking "wmake -s libso /home/anoldfriend/OpenFOAM/anoldfriend-7/run/trainning/101programming/codeStream_BC/my2Delbow_UparabolicInlet_timeDep/dynamicCode/parabolicProfile"
wmake libso /home/anoldfriend/OpenFOAM/anoldfriend-7/run/trainning/101programming/codeStream_BC/my2Delbow_UparabolicInlet_timeDep/dynamicCode/parabolicProfile
    wmkdep: fixedValueFvPatchFieldTemplate.C
    Ctoo: fixedValueFvPatchFieldTemplate.C
    ld: /home/anoldfriend/OpenFOAM/anoldfriend-7/run/trainning/101programming/codeStream_BC/my2Delbow_UparabolicInlet_timeDep/dynamicCode/parabolicProfile/../platforms/linux64GccDPInt32Debug/lib/libparabolicProfile_3c779351346c1c7d8cec552eeef3538ceb6ac134.so
Reading/calculating face flux field phi


Starting time loop

Time = 0.05

Courant Number mean: 0.00017826052 max: 0.17320508
smoothSolver:  Solving for Ux, Initial residual = 1, Final residual = 2.5817994e-13, No Iterations 2
smoothSolver:  Solving for Uy, Initial residual = 1, Final residual = 1.9476307e-11, No Iterations 2
DICPCG:  Solving for p, Initial residual = 1, Final residual = 0.0086971207, No Iterations 64
DICPCG:  Solving for p, Initial residual = 0.096962794, Final residual = 0.00084128289, No Iterations 42
DICPCG:  Solving for p, Initial residual = 0.0098116534, Final residual = 7.8372118e-05, No Iterations 52
DICPCG:  Solving for p, Initial residual = 0.0014129858, Final residual = 1.3956161e-05, No Iterations 16
time step continuity errors : sum local = 2.5883368e-06, global = 6.6902487e-07, cumulative = 6.6902487e-07
DICPCG:  Solving for p, Initial residual = 0.00022456627, Final residual = 1.2973071e-06, No Iterations 61
DICPCG:  Solving for p, Initial residual = 0.00017035232, Final residual = 1.6587861e-06, No Iterations 20
DICPCG:  Solving for p, Initial residual = 1.6097996e-05, Final residual = 8.8086307e-07, No Iterations 32
DICPCG:  Solving for p, Initial residual = 3.989365e-06, Final residual = 7.3586786e-07, No Iterations 1
time step continuity errors : sum local = 1.3634934e-07, global = 3.057354e-09, cumulative = 6.7208223e-07
ExecutionTime = 0.15 s  ClockTime = 6 s

fieldMinMax minmaxdomain write:
    min(p) = 0 in cell 2 at location (49 64 0)
    max(p) = 3445.9066 in cell 49 at location (0.57735027 7 0)
    min(U) = (0.20708195 -0.20585316 0) in cell 0 at location (0.66666667 15.333333 0)
    max(U) = (1.1842118 0.41356442 1.3166716e-14) in cell 98 at location (2.5773503 1 0)

Time = 0.1

Courant Number mean: 0.095750346 max: 0.38052895
smoothSolver:  Solving for Ux, Initial residual = 0.417479, Final residual = 5.8234797e-09, No Iterations 3
smoothSolver:  Solving for Uy, Initial residual = 0.42164983, Final residual = 2.9898856e-09, No Iterations 4
DICPCG:  Solving for p, Initial residual = 0.01903011, Final residual = 0.00015365419, No Iterations 63
DICPCG:  Solving for p, Initial residual = 0.43231675, Final residual = 0.0037567599, No Iterations 42
DICPCG:  Solving for p, Initial residual = 0.081382579, Final residual = 0.00055223687, No Iterations 51
DICPCG:  Solving for p, Initial residual = 0.011777204, Final residual = 0.00010044633, No Iterations 41
time step continuity errors : sum local = 2.2205561e-06, global = -1.0469516e-07, cumulative = 5.6738706e-07
DICPCG:  Solving for p, Initial residual = 0.046249702, Final residual = 0.00033384279, No Iterations 62
DICPCG:  Solving for p, Initial residual = 0.32308319, Final residual = 0.0031459946, No Iterations 42
DICPCG:  Solving for p, Initial residual = 0.042577503, Final residual = 0.00041834952, No Iterations 28
DICPCG:  Solving for p, Initial residual = 0.006494842, Final residual = 9.6128387e-07, No Iterations 67
time step continuity errors : sum local = 4.1871268e-09, global = -7.4660321e-12, cumulative = 5.673796e-07
ExecutionTime = 0.22 s  ClockTime = 6 s

fieldMinMax minmaxdomain write:
    min(p) = -11.182995 in cell 189 at location (56.614857 11.932551 0)
    max(p) = 2.2963406 in cell 35 at location (55.039238 -4.249859 0)
    min(U) = (0.22956785 -0.22152146 0) in cell 0 at location (0.66666667 15.333333 0)
    max(U) = (1.3543232 2.243736 4.146007e-18) in cell 6 at location (46.149765 23.460513 0)

Time = 0.15

Courant Number mean: 0.095759799 max: 0.38721961
smoothSolver:  Solving for Ux, Initial residual = 0.02070173, Final residual = 5.2381062e-09, No Iterations 3
smoothSolver:  Solving for Uy, Initial residual = 0.012319927, Final residual = 2.4585441e-09, No Iterations 3
DICPCG:  Solving for p, Initial residual = 0.24820872, Final residual = 0.0023590687, No Iterations 19
DICPCG:  Solving for p, Initial residual = 0.040170174, Final residual = 0.00032607486, No Iterations 47
DICPCG:  Solving for p, Initial residual = 0.0095853341, Final residual = 8.862395e-05, No Iterations 26
DICPCG:  Solving for p, Initial residual = 0.0012004917, Final residual = 9.2154961e-06, No Iterations 53
time step continuity errors : sum local = 2.4196792e-08, global = 6.4692952e-11, cumulative = 5.6744429e-07
DICPCG:  Solving for p, Initial residual = 0.014505318, Final residual = 0.00013177816, No Iterations 45
DICPCG:  Solving for p, Initial residual = 0.0034273627, Final residual = 3.4112941e-05, No Iterations 14
DICPCG:  Solving for p, Initial residual = 0.00035141845, Final residual = 2.573355e-06, No Iterations 49
DICPCG:  Solving for p, Initial residual = 7.1067194e-05, Final residual = 9.5776095e-07, No Iterations 16
time step continuity errors : sum local = 2.5504267e-09, global = 7.6487406e-11, cumulative = 5.6752078e-07
ExecutionTime = 0.27 s  ClockTime = 6 s

fieldMinMax minmaxdomain write:
    min(p) = -5.7601712 in cell 189 at location (56.614857 11.932551 0)
    max(p) = 3.8634565 in cell 35 at location (55.039238 -4.249859 0)
    min(U) = (0.24565294 -0.23087548 0) in cell 0 at location (0.66666667 15.333333 0)
    max(U) = (1.3486065 2.2377031 2.456542e-18) in cell 6 at location (46.149765 23.460513 0)

Time = 0.2

Courant Number mean: 0.09576895 max: 0.38906495
smoothSolver:  Solving for Ux, Initial residual = 0.015248344, Final residual = 3.983147e-09, No Iterations 3
smoothSolver:  Solving for Uy, Initial residual = 0.0088961882, Final residual = 1.7677087e-09, No Iterations 3
DICPCG:  Solving for p, Initial residual = 0.1323627, Final residual = 0.0012700056, No Iterations 41
DICPCG:  Solving for p, Initial residual = 0.015944141, Final residual = 0.00015839502, No Iterations 22
DICPCG:  Solving for p, Initial residual = 0.0019447748, Final residual = 1.669162e-05, No Iterations 52
DICPCG:  Solving for p, Initial residual = 0.00048257667, Final residual = 4.7878273e-06, No Iterations 21
time step continuity errors : sum local = 9.9092048e-09, global = -1.6002503e-09, cumulative = 5.6592053e-07
DICPCG:  Solving for p, Initial residual = 0.0065181385, Final residual = 5.6560961e-05, No Iterations 46
DICPCG:  Solving for p, Initial residual = 0.0014464404, Final residual = 1.2152773e-05, No Iterations 14
DICPCG:  Solving for p, Initial residual = 0.00015800852, Final residual = 1.3269945e-06, No Iterations 57
DICPCG:  Solving for p, Initial residual = 3.4253844e-05, Final residual = 8.5279405e-07, No Iterations 6
time step continuity errors : sum local = 1.7682243e-09, global = 7.31382e-11, cumulative = 5.6599367e-07
ExecutionTime = 0.31 s  ClockTime = 6 s

fieldMinMax minmaxdomain write:
    min(p) = -4.0945126 in cell 189 at location (56.614857 11.932551 0)
    max(p) = 4.0017352 in cell 35 at location (55.039238 -4.249859 0)
    min(U) = (0.25808982 -0.23665353 0) in cell 0 at location (0.66666667 15.333333 0)
    max(U) = (1.345102 2.2324822 1.4692672e-18) in cell 6 at location (46.149765 23.460513 0)

Time = 0.25

Courant Number mean: 0.095789229 max: 0.38960273
smoothSolver:  Solving for Ux, Initial residual = 0.012768475, Final residual = 2.9645994e-09, No Iterations 3
smoothSolver:  Solving for Uy, Initial residual = 0.0073371888, Final residual = 1.4105892e-09, No Iterations 3
DICPCG:  Solving for p, Initial residual = 0.1049082, Final residual = 0.00099238395, No Iterations 45
DICPCG:  Solving for p, Initial residual = 0.010909639, Final residual = 0.00010217265, No Iterations 27
DICPCG:  Solving for p, Initial residual = 0.0014335531, Final residual = 1.3247731e-05, No Iterations 51
DICPCG:  Solving for p, Initial residual = 0.00024612958, Final residual = 2.3803993e-06, No Iterations 17
time step continuity errors : sum local = 4.2686016e-09, global = -7.3367216e-10, cumulative = 5.6525999e-07
DICPCG:  Solving for p, Initial residual = 0.0045465869, Final residual = 3.6774255e-05, No Iterations 50
DICPCG:  Solving for p, Initial residual = 0.0010303249, Final residual = 9.5286248e-06, No Iterations 19
DICPCG:  Solving for p, Initial residual = 0.00011989661, Final residual = 1.1644475e-06, No Iterations 47
DICPCG:  Solving for p, Initial residual = 2.4719809e-05, Final residual = 9.5398441e-07, No Iterations 3
time step continuity errors : sum local = 1.7108787e-09, global = -9.8956561e-11, cumulative = 5.6516104e-07
ExecutionTime = 0.36 s  ClockTime = 6 s

fieldMinMax minmaxdomain write:
    min(p) = -3.1376587 in cell 189 at location (56.614857 11.932551 0)
    max(p) = 4.521135 in cell 70 at location (53.854156 -3.9930806 0)
    min(U) = (0.26813709 -0.2400936 0) in cell 0 at location (0.66666667 15.333333 0)
    max(U) = (1.3432964 2.2275508 8.9361028e-19) in cell 6 at location (46.149765 23.460513 0)

Time = 0.3

Courant Number mean: 0.095814504 max: 0.38943444
smoothSolver:  Solving for Ux, Initial residual = 0.011030399, Final residual = 2.1246514e-09, No Iterations 3
smoothSolver:  Solving for Uy, Initial residual = 0.0062666707, Final residual = 1.1723967e-09, No Iterations 3
DICPCG:  Solving for p, Initial residual = 0.087830497, Final residual = 0.00085322163, No Iterations 7
DICPCG:  Solving for p, Initial residual = 0.0087646942, Final residual = 8.7343141e-05, No Iterations 52
DICPCG:  Solving for p, Initial residual = 0.0028454085, Final residual = 2.783369e-05, No Iterations 16
DICPCG:  Solving for p, Initial residual = 0.00030250137, Final residual = 2.4837134e-06, No Iterations 58
time step continuity errors : sum local = 3.9736867e-09, global = -5.2671562e-11, cumulative = 5.6510837e-07
DICPCG:  Solving for p, Initial residual = 0.0036732267, Final residual = 3.1518859e-05, No Iterations 57
DICPCG:  Solving for p, Initial residual = 0.00082386203, Final residual = 6.6744075e-06, No Iterations 9
DICPCG:  Solving for p, Initial residual = 9.5068802e-05, Final residual = 9.1864978e-07, No Iterations 49
DICPCG:  Solving for p, Initial residual = 2.0399291e-05, Final residual = 8.746374e-07, No Iterations 3
time step continuity errors : sum local = 1.3980242e-09, global = 1.6870715e-10, cumulative = 5.6527707e-07
ExecutionTime = 0.4 s  ClockTime = 6 s

fieldMinMax minmaxdomain write:
    min(p) = -2.6296698 in cell 189 at location (56.614857 11.932551 0)
    max(p) = 4.6680273 in cell 70 at location (53.854156 -3.9930806 0)
    min(U) = (0.2765334 -0.24192857 0) in cell 0 at location (0.66666667 15.333333 0)
    max(U) = (1.342819 2.2229405 5.4430422e-19) in cell 6 at location (46.149765 23.460513 0)

Time = 0.35

Courant Number mean: 0.095838737 max: 0.38893043
smoothSolver:  Solving for Ux, Initial residual = 0.0096722829, Final residual = 1.4959052e-09, No Iterations 3
smoothSolver:  Solving for Uy, Initial residual = 0.0054315147, Final residual = 1.0020577e-09, No Iterations 3
DICPCG:  Solving for p, Initial residual = 0.074899472, Final residual = 0.00069623242, No Iterations 7
DICPCG:  Solving for p, Initial residual = 0.0073347437, Final residual = 7.2629805e-05, No Iterations 56
DICPCG:  Solving for p, Initial residual = 0.0020093677, Final residual = 1.9247084e-05, No Iterations 42
DICPCG:  Solving for p, Initial residual = 0.0002213593, Final residual = 2.207841e-06, No Iterations 32
time step continuity errors : sum local = 3.2121051e-09, global = 3.6708027e-10, cumulative = 5.6564415e-07
DICPCG:  Solving for p, Initial residual = 0.0030950874, Final residual = 2.5320993e-05, No Iterations 57
DICPCG:  Solving for p, Initial residual = 0.00067335246, Final residual = 6.2593393e-06, No Iterations 11
DICPCG:  Solving for p, Initial residual = 7.7381764e-05, Final residual = 8.2347769e-07, No Iterations 48
DICPCG:  Solving for p, Initial residual = 1.5743159e-05, Final residual = 7.7264184e-07, No Iterations 3
time step continuity errors : sum local = 1.1238204e-09, global = -5.1190961e-12, cumulative = 5.6563904e-07
ExecutionTime = 0.45 s  ClockTime = 6 s

fieldMinMax minmaxdomain write:
    min(p) = -2.3811249 in cell 189 at location (56.614857 11.932551 0)
    max(p) = 4.5992166 in cell 70 at location (53.854156 -3.9930806 0)
    min(U) = (0.28373353 -0.24261497 0) in cell 0 at location (0.66666667 15.333333 0)
    max(U) = (1.343324 2.2185907 3.4073933e-19) in cell 6 at location (46.149765 23.460513 0)

Time = 0.4

Courant Number mean: 0.095861156 max: 0.38831415
smoothSolver:  Solving for Ux, Initial residual = 0.0085917064, Final residual = 1.2320801e-09, No Iterations 3
smoothSolver:  Solving for Uy, Initial residual = 0.0047893387, Final residual = 8.4451446e-10, No Iterations 3
DICPCG:  Solving for p, Initial residual = 0.067062228, Final residual = 0.0006145758, No Iterations 7
DICPCG:  Solving for p, Initial residual = 0.0065366657, Final residual = 5.5456276e-05, No Iterations 57
DICPCG:  Solving for p, Initial residual = 0.001475106, Final residual = 1.4125911e-05, No Iterations 26
DICPCG:  Solving for p, Initial residual = 0.000164136, Final residual = 1.6050459e-06, No Iterations 53
time step continuity errors : sum local = 2.1428426e-09, global = 3.4274877e-11, cumulative = 5.6567331e-07
DICPCG:  Solving for p, Initial residual = 0.002702368, Final residual = 2.1342363e-05, No Iterations 55
DICPCG:  Solving for p, Initial residual = 0.0005696194, Final residual = 5.385861e-06, No Iterations 11
DICPCG:  Solving for p, Initial residual = 6.599012e-05, Final residual = 9.0221853e-07, No Iterations 48
DICPCG:  Solving for p, Initial residual = 1.2720882e-05, Final residual = 9.5640543e-07, No Iterations 2
time step continuity errors : sum local = 1.2770452e-09, global = -4.4047917e-11, cumulative = 5.6562926e-07
ExecutionTime = 0.5 s  ClockTime = 6 s

fieldMinMax minmaxdomain write:
    min(p) = -2.2819003 in cell 189 at location (56.614857 11.932551 0)
    max(p) = 4.4296264 in cell 70 at location (53.854156 -3.9930806 0)
    min(U) = (0.29003186 -0.24245159 0) in cell 0 at location (0.66666667 15.333333 0)
    max(U) = (1.3445471 2.2144516 2.2967897e-19) in cell 6 at location (46.149765 23.460513 0)

Time = 0.45

Courant Number mean: 0.095881575 max: 0.38784586
smoothSolver:  Solving for Ux, Initial residual = 0.0077182231, Final residual = 1.0213741e-09, No Iterations 3
smoothSolver:  Solving for Uy, Initial residual = 0.0042640382, Final residual = 7.2126087e-10, No Iterations 3
DICPCG:  Solving for p, Initial residual = 0.06026269, Final residual = 0.00056264919, No Iterations 7
DICPCG:  Solving for p, Initial residual = 0.0058637707, Final residual = 4.8645828e-05, No Iterations 58
DICPCG:  Solving for p, Initial residual = 0.0011482021, Final residual = 1.0264347e-05, No Iterations 22
DICPCG:  Solving for p, Initial residual = 0.00013115957, Final residual = 1.268256e-06, No Iterations 44
time step continuity errors : sum local = 1.5674805e-09, global = 9.5544915e-11, cumulative = 5.6572481e-07
DICPCG:  Solving for p, Initial residual = 0.0024594592, Final residual = 2.2195526e-05, No Iterations 24
DICPCG:  Solving for p, Initial residual = 0.00050657678, Final residual = 4.7235457e-06, No Iterations 51
DICPCG:  Solving for p, Initial residual = 7.358646e-05, Final residual = 8.6683299e-07, No Iterations 15
DICPCG:  Solving for p, Initial residual = 9.9786177e-06, Final residual = 8.9978442e-07, No Iterations 2
time step continuity errors : sum local = 1.112674e-09, global = -5.8977141e-11, cumulative = 5.6566583e-07
ExecutionTime = 0.54 s  ClockTime = 6 s

fieldMinMax minmaxdomain write:
    min(p) = -2.2915703 in cell 189 at location (56.614857 11.932551 0)
    max(p) = 4.1832298 in cell 70 at location (53.854156 -3.9930806 0)
    min(U) = (0.29562875 -0.24164536 0) in cell 0 at location (0.66666667 15.333333 0)
    max(U) = (1.3462743 2.2104837 1.745493e-19) in cell 6 at location (46.149765 23.460513 0)

Time = 0.5

Courant Number mean: 0.095900614 max: 0.38739912
smoothSolver:  Solving for Ux, Initial residual = 0.0069795951, Final residual = 1.2025829e-09, No Iterations 3
smoothSolver:  Solving for Uy, Initial residual = 0.0038277918, Final residual = 5.7775621e-10, No Iterations 3
DICPCG:  Solving for p, Initial residual = 0.055589773, Final residual = 0.00054065071, No Iterations 7
DICPCG:  Solving for p, Initial residual = 0.0055336866, Final residual = 5.4891684e-05, No Iterations 57
DICPCG:  Solving for p, Initial residual = 0.00098307691, Final residual = 9.3146065e-06, No Iterations 20
DICPCG:  Solving for p, Initial residual = 0.00011708013, Final residual = 1.0471492e-06, No Iterations 26
time step continuity errors : sum local = 1.2035055e-09, global = 1.1335436e-10, cumulative = 5.6577918e-07
DICPCG:  Solving for p, Initial residual = 0.0023352216, Final residual = 1.9418547e-05, No Iterations 24
DICPCG:  Solving for p, Initial residual = 0.00047809273, Final residual = 4.7365345e-06, No Iterations 22
DICPCG:  Solving for p, Initial residual = 5.7658462e-05, Final residual = 9.3616184e-07, No Iterations 44
DICPCG:  Solving for p, Initial residual = 1.4561048e-05, Final residual = 7.8183605e-07, No Iterations 3
time step continuity errors : sum local = 8.9922925e-10, global = 4.5430424e-12, cumulative = 5.6578373e-07
ExecutionTime = 0.57 s  ClockTime = 7 s

fieldMinMax minmaxdomain write:
    min(p) = -2.3666183 in cell 189 at location (56.614857 11.932551 0)
    max(p) = 3.8654602 in cell 70 at location (53.854156 -3.9930806 0)
    min(U) = (0.30065085 -0.24032908 0) in cell 0 at location (0.66666667 15.333333 0)
    max(U) = (1.348336 2.2066765 1.5538273e-19) in cell 6 at location (46.149765 23.460513 0)

Time = 0.55

Courant Number mean: 0.095917891 max: 0.38703444
smoothSolver:  Solving for Ux, Initial residual = 0.0063410697, Final residual = 1.1580781e-09, No Iterations 3
smoothSolver:  Solving for Uy, Initial residual = 0.0034626722, Final residual = 4.8536543e-10, No Iterations 3
DICPCG:  Solving for p, Initial residual = 0.05173415, Final residual = 0.00044432051, No Iterations 14
DICPCG:  Solving for p, Initial residual = 0.0053881176, Final residual = 4.5715076e-05, No Iterations 26
DICPCG:  Solving for p, Initial residual = 0.00072369223, Final residual = 6.9083027e-06, No Iterations 51
DICPCG:  Solving for p, Initial residual = 0.00011218294, Final residual = 9.8305532e-07, No Iterations 19
time step continuity errors : sum local = 1.0596459e-09, global = -1.1540671e-10, cumulative = 5.6566832e-07
DICPCG:  Solving for p, Initial residual = 0.00215348, Final residual = 1.7951075e-05, No Iterations 24
DICPCG:  Solving for p, Initial residual = 0.00043775098, Final residual = 4.332845e-06, No Iterations 29
DICPCG:  Solving for p, Initial residual = 5.4441044e-05, Final residual = 7.7550606e-07, No Iterations 53
DICPCG:  Solving for p, Initial residual = 1.5091256e-05, Final residual = 6.2415918e-07, No Iterations 3
time step continuity errors : sum local = 6.7340516e-10, global = 7.4438142e-12, cumulative = 5.6567576e-07
ExecutionTime = 0.63 s  ClockTime = 7 s

fieldMinMax minmaxdomain write:
    min(p) = -2.4771753 in cell 189 at location (56.614857 11.932551 0)
    max(p) = 3.7322647 in cell 49 at location (0.57735027 7 0)
    min(U) = (0.30518284 -0.23859243 0) in cell 0 at location (0.66666667 15.333333 0)
    max(U) = (1.3505894 2.2030069 1.6027442e-19) in cell 6 at location (46.149765 23.460513 0)

Time = 0.6

Courant Number mean: 0.095935138 max: 0.38796228
smoothSolver:  Solving for Ux, Initial residual = 0.0058245167, Final residual = 1.1528059e-09, No Iterations 3
smoothSolver:  Solving for Uy, Initial residual = 0.0031544958, Final residual = 4.0213417e-10, No Iterations 3
DICPCG:  Solving for p, Initial residual = 0.046965254, Final residual = 0.00042615475, No Iterations 7
DICPCG:  Solving for p, Initial residual = 0.0049551752, Final residual = 4.6955925e-05, No Iterations 57
DICPCG:  Solving for p, Initial residual = 0.00081780303, Final residual = 6.993913e-06, No Iterations 18
DICPCG:  Solving for p, Initial residual = 9.6413124e-05, Final residual = 7.7371206e-07, No Iterations 58
time step continuity errors : sum local = 7.8461272e-10, global = -7.7639774e-13, cumulative = 5.6567499e-07
DICPCG:  Solving for p, Initial residual = 0.001958135, Final residual = 1.5768137e-05, No Iterations 24
DICPCG:  Solving for p, Initial residual = 0.00038267812, Final residual = 3.3906818e-06, No Iterations 50
DICPCG:  Solving for p, Initial residual = 5.6370357e-05, Final residual = 7.4747795e-07, No Iterations 14
DICPCG:  Solving for p, Initial residual = 8.4095443e-06, Final residual = 7.9305926e-07, No Iterations 2
time step continuity errors : sum local = 8.0504412e-10, global = 1.2195317e-10, cumulative = 5.6579694e-07
ExecutionTime = 0.67 s  ClockTime = 7 s

fieldMinMax minmaxdomain write:
    min(p) = -2.599932 in cell 189 at location (56.614857 11.932551 0)
    max(p) = 3.6297912 in cell 49 at location (0.57735027 7 0)
    min(U) = (0.30929213 -0.23650703 0) in cell 0 at location (0.66666667 15.333333 0)
    max(U) = (1.3528991 2.1994143 1.8709353e-19) in cell 6 at location (46.149765 23.460513 0)

Time = 0.65

Courant Number mean: 0.095951396 max: 0.38903786
smoothSolver:  Solving for Ux, Initial residual = 0.0053857471, Final residual = 1.1401594e-09, No Iterations 3
smoothSolver:  Solving for Uy, Initial residual = 0.0028982388, Final residual = 3.3989059e-10, No Iterations 3
DICPCG:  Solving for p, Initial residual = 0.044087544, Final residual = 0.00037879951, No Iterations 7
DICPCG:  Solving for p, Initial residual = 0.0045972072, Final residual = 3.3598455e-05, No Iterations 57
DICPCG:  Solving for p, Initial residual = 0.00081012358, Final residual = 7.4056141e-06, No Iterations 18
DICPCG:  Solving for p, Initial residual = 9.3622931e-05, Final residual = 7.6630667e-07, No Iterations 58
time step continuity errors : sum local = 7.3342025e-10, global = 1.2464134e-11, cumulative = 5.6580941e-07
DICPCG:  Solving for p, Initial residual = 0.00189017, Final residual = 1.5592521e-05, No Iterations 24
DICPCG:  Solving for p, Initial residual = 0.00036055945, Final residual = 2.3721338e-06, No Iterations 50
DICPCG:  Solving for p, Initial residual = 6.1775599e-05, Final residual = 9.5451507e-07, No Iterations 8
DICPCG:  Solving for p, Initial residual = 7.6914137e-06, Final residual = 9.5070479e-07, No Iterations 2
time step continuity errors : sum local = 9.1101944e-10, global = 1.6694294e-10, cumulative = 5.6597635e-07
ExecutionTime = 0.72 s  ClockTime = 7 s

fieldMinMax minmaxdomain write:
    min(p) = -2.7301909 in cell 189 at location (56.614857 11.932551 0)
    max(p) = 3.507411 in cell 49 at location (0.57735027 7 0)
    min(U) = (0.31306523 -0.23416272 0) in cell 0 at location (0.66666667 15.333333 0)
    max(U) = (1.3551604 2.1958553 2.2524801e-19) in cell 6 at location (46.149765 23.460513 0)

Time = 0.7

Courant Number mean: 0.095965899 max: 0.38994924
smoothSolver:  Solving for Ux, Initial residual = 0.0050093503, Final residual = 1.0552191e-09, No Iterations 3
smoothSolver:  Solving for Uy, Initial residual = 0.0026807864, Final residual = 3.1844895e-10, No Iterations 3
DICPCG:  Solving for p, Initial residual = 0.041155308, Final residual = 0.00035862921, No Iterations 7
DICPCG:  Solving for p, Initial residual = 0.0041969415, Final residual = 3.7110192e-05, No Iterations 57
DICPCG:  Solving for p, Initial residual = 0.00080646079, Final residual = 7.3151577e-06, No Iterations 18
DICPCG:  Solving for p, Initial residual = 9.1574252e-05, Final residual = 9.4435417e-07, No Iterations 53
time step continuity errors : sum local = 8.5816192e-10, global = -3.3862542e-11, cumulative = 5.6594249e-07
DICPCG:  Solving for p, Initial residual = 0.0017862885, Final residual = 1.7475744e-05, No Iterations 31
DICPCG:  Solving for p, Initial residual = 0.00032313587, Final residual = 3.0072282e-06, No Iterations 44
DICPCG:  Solving for p, Initial residual = 6.2822935e-05, Final residual = 9.8659439e-07, No Iterations 16
DICPCG:  Solving for p, Initial residual = 7.6706721e-06, Final residual = 8.1879037e-07, No Iterations 2
time step continuity errors : sum local = 7.4495751e-10, global = 1.1817833e-10, cumulative = 5.6606066e-07
ExecutionTime = 0.76 s  ClockTime = 7 s

fieldMinMax minmaxdomain write:
    min(p) = -2.8627658 in cell 189 at location (56.614857 11.932551 0)
    max(p) = 3.3784383 in cell 49 at location (0.57735027 7 0)
    min(U) = (0.31653626 -0.23159548 0) in cell 0 at location (0.66666667 15.333333 0)
    max(U) = (1.3573318 2.1923571 2.6519438e-19) in cell 6 at location (46.149765 23.460513 0)

Time = 0.75

Courant Number mean: 0.095979121 max: 0.3907246
smoothSolver:  Solving for Ux, Initial residual = 0.0046766708, Final residual = 8.9247657e-10, No Iterations 3
smoothSolver:  Solving for Uy, Initial residual = 0.0024902393, Final residual = 2.700428e-10, No Iterations 3
DICPCG:  Solving for p, Initial residual = 0.038625005, Final residual = 0.00033064706, No Iterations 7
DICPCG:  Solving for p, Initial residual = 0.0039587048, Final residual = 3.2532746e-05, No Iterations 57
DICPCG:  Solving for p, Initial residual = 0.00079613339, Final residual = 7.6941548e-06, No Iterations 19
DICPCG:  Solving for p, Initial residual = 8.8981185e-05, Final residual = 8.3792252e-07, No Iterations 46
time step continuity errors : sum local = 7.2594527e-10, global = 5.9252231e-12, cumulative = 5.6606659e-07
DICPCG:  Solving for p, Initial residual = 0.0016714603, Final residual = 1.4962665e-05, No Iterations 56
DICPCG:  Solving for p, Initial residual = 0.00029630779, Final residual = 2.5725477e-06, No Iterations 10
DICPCG:  Solving for p, Initial residual = 3.3651629e-05, Final residual = 9.0934711e-07, No Iterations 24
DICPCG:  Solving for p, Initial residual = 5.4001081e-06, Final residual = 6.5229595e-07, No Iterations 2
time step continuity errors : sum local = 5.6583365e-10, global = -1.736543e-10, cumulative = 5.6589293e-07
ExecutionTime = 0.79 s  ClockTime = 7 s

fieldMinMax minmaxdomain write:
    min(p) = -2.9901277 in cell 189 at location (56.614857 11.932551 0)
    max(p) = 3.2450489 in cell 49 at location (0.57735027 7 0)
    min(U) = (0.31973308 -0.2288346 0) in cell 0 at location (0.66666667 15.333333 0)
    max(U) = (1.3593733 2.188921 3.0833974e-19) in cell 6 at location (46.149765 23.460513 0)

Time = 0.8

Courant Number mean: 0.095991086 max: 0.39139689
smoothSolver:  Solving for Ux, Initial residual = 0.0043860931, Final residual = 7.786744e-10, No Iterations 3
smoothSolver:  Solving for Uy, Initial residual = 0.0023249765, Final residual = 2.5316546e-10, No Iterations 3
DICPCG:  Solving for p, Initial residual = 0.036274557, Final residual = 0.00030646348, No Iterations 7
DICPCG:  Solving for p, Initial residual = 0.0037552498, Final residual = 2.8508099e-05, No Iterations 57
DICPCG:  Solving for p, Initial residual = 0.00080672971, Final residual = 6.9231482e-06, No Iterations 47
DICPCG:  Solving for p, Initial residual = 9.0712968e-05, Final residual = 6.9256058e-07, No Iterations 29
time step continuity errors : sum local = 5.7367134e-10, global = 1.0795314e-10, cumulative = 5.6600089e-07
DICPCG:  Solving for p, Initial residual = 0.0015726792, Final residual = 1.5083417e-05, No Iterations 50
DICPCG:  Solving for p, Initial residual = 0.00028031482, Final residual = 2.6269041e-06, No Iterations 23
DICPCG:  Solving for p, Initial residual = 3.2012841e-05, Final residual = 8.5183211e-07, No Iterations 39
DICPCG:  Solving for p, Initial residual = 6.3307991e-06, Final residual = 7.407665e-07, No Iterations 2
time step continuity errors : sum local = 6.142963e-10, global = -1.2120488e-12, cumulative = 5.6599968e-07
ExecutionTime = 0.85 s  ClockTime = 7 s

fieldMinMax minmaxdomain write:
    min(p) = -3.1114238 in cell 189 at location (56.614857 11.932551 0)
    max(p) = 3.1048476 in cell 49 at location (0.57735027 7 0)
    min(U) = (0.32267907 -0.22590458 0) in cell 0 at location (0.66666667 15.333333 0)
    max(U) = (1.3612569 2.1855473 3.5392472e-19) in cell 6 at location (46.149765 23.460513 0)

Time = 0.85

Courant Number mean: 0.096001854 max: 0.39201468
smoothSolver:  Solving for Ux, Initial residual = 0.0041308252, Final residual = 6.8224051e-10, No Iterations 3
smoothSolver:  Solving for Uy, Initial residual = 0.0021778635, Final residual = 2.5003642e-10, No Iterations 3
DICPCG:  Solving for p, Initial residual = 0.034313788, Final residual = 0.00028302543, No Iterations 7
DICPCG:  Solving for p, Initial residual = 0.0036079809, Final residual = 3.5559949e-05, No Iterations 50
DICPCG:  Solving for p, Initial residual = 0.00082013915, Final residual = 7.8653415e-06, No Iterations 26
DICPCG:  Solving for p, Initial residual = 9.6131293e-05, Final residual = 7.9057402e-07, No Iterations 49
time step continuity errors : sum local = 6.2708837e-10, global = -3.1729737e-11, cumulative = 5.6596795e-07
DICPCG:  Solving for p, Initial residual = 0.0014793135, Final residual = 1.236739e-05, No Iterations 41
DICPCG:  Solving for p, Initial residual = 0.00026006763, Final residual = 2.2916274e-06, No Iterations 10
DICPCG:  Solving for p, Initial residual = 2.6446512e-05, Final residual = 9.1977106e-07, No Iterations 19
DICPCG:  Solving for p, Initial residual = 5.1346656e-06, Final residual = 9.7196095e-07, No Iterations 1
time step continuity errors : sum local = 7.7200996e-10, global = -5.8297402e-11, cumulative = 5.6590965e-07
ExecutionTime = 0.9 s  ClockTime = 7 s

fieldMinMax minmaxdomain write:
    min(p) = -3.2251807 in cell 189 at location (56.614857 11.932551 0)
    max(p) = 2.9555449 in cell 49 at location (0.57735027 7 0)
    min(U) = (0.3253947 -0.22282678 0) in cell 0 at location (0.66666667 15.333333 0)
    max(U) = (1.3629587 2.1822264 4.015685e-19) in cell 6 at location (46.149765 23.460513 0)

Time = 0.9

Courant Number mean: 0.096013504 max: 0.39260917
smoothSolver:  Solving for Ux, Initial residual = 0.0039005535, Final residual = 6.527695e-10, No Iterations 3
smoothSolver:  Solving for Uy, Initial residual = 0.0020465774, Final residual = 2.7203331e-10, No Iterations 3
DICPCG:  Solving for p, Initial residual = 0.033913959, Final residual = 0.00033171694, No Iterations 7
DICPCG:  Solving for p, Initial residual = 0.0037373249, Final residual = 3.5691004e-05, No Iterations 53
DICPCG:  Solving for p, Initial residual = 0.00086149539, Final residual = 7.6308659e-06, No Iterations 46
DICPCG:  Solving for p, Initial residual = 9.2626064e-05, Final residual = 7.0047378e-07, No Iterations 51
time step continuity errors : sum local = 5.3160123e-10, global = -9.416481e-12, cumulative = 5.6590023e-07
DICPCG:  Solving for p, Initial residual = 0.0015221674, Final residual = 1.1975822e-05, No Iterations 54
DICPCG:  Solving for p, Initial residual = 0.00028044706, Final residual = 2.7194139e-06, No Iterations 11
DICPCG:  Solving for p, Initial residual = 3.1047874e-05, Final residual = 9.6468642e-07, No Iterations 13
DICPCG:  Solving for p, Initial residual = 4.9553736e-06, Final residual = 6.5482391e-07, No Iterations 2
time step continuity errors : sum local = 4.9750837e-10, global = 1.7085026e-11, cumulative = 5.6591732e-07
ExecutionTime = 0.95 s  ClockTime = 7 s

fieldMinMax minmaxdomain write:
    min(p) = -3.3349981 in cell 189 at location (56.614857 11.932551 0)
    max(p) = 2.8074718 in cell 49 at location (0.57735027 7 0)
    min(U) = (0.32790655 -0.21961904 0) in cell 0 at location (0.66666667 15.333333 0)
    max(U) = (1.3644678 2.1789549 4.4939689e-19) in cell 6 at location (46.149765 23.460513 0)

Time = 0.95

Courant Number mean: 0.096025272 max: 0.3932057
smoothSolver:  Solving for Ux, Initial residual = 0.0036853336, Final residual = 7.3258119e-10, No Iterations 3
smoothSolver:  Solving for Uy, Initial residual = 0.0019304123, Final residual = 2.916025e-10, No Iterations 3
DICPCG:  Solving for p, Initial residual = 0.032436886, Final residual = 0.00026698041, No Iterations 7
DICPCG:  Solving for p, Initial residual = 0.0035003927, Final residual = 2.7668248e-05, No Iterations 47
DICPCG:  Solving for p, Initial residual = 0.00084926279, Final residual = 7.8569757e-06, No Iterations 47
DICPCG:  Solving for p, Initial residual = 9.8151434e-05, Final residual = 7.6433777e-07, No Iterations 29
time step continuity errors : sum local = 5.5517864e-10, global = 1.2691131e-10, cumulative = 5.6604423e-07
DICPCG:  Solving for p, Initial residual = 0.0014425167, Final residual = 1.3152606e-05, No Iterations 43
DICPCG:  Solving for p, Initial residual = 0.0002598256, Final residual = 2.4772916e-06, No Iterations 24
DICPCG:  Solving for p, Initial residual = 3.2298672e-05, Final residual = 9.2717272e-07, No Iterations 8
DICPCG:  Solving for p, Initial residual = 4.3359762e-06, Final residual = 8.7384042e-07, No Iterations 1
time step continuity errors : sum local = 6.3537103e-10, global = -1.6389318e-10, cumulative = 5.6588034e-07
ExecutionTime = 0.99 s  ClockTime = 7 s

fieldMinMax minmaxdomain write:
    min(p) = -3.4368688 in cell 189 at location (56.614857 11.932551 0)
    max(p) = 2.6605029 in cell 49 at location (0.57735027 7 0)
    min(U) = (0.33036019 -0.21627508 0) in cell 0 at location (0.66666667 15.333333 0)
    max(U) = (1.3657745 2.1757235 4.9718759e-19) in cell 6 at location (46.149765 23.460513 0)

Time = 1

Courant Number mean: 0.096036479 max: 0.39381349
smoothSolver:  Solving for Ux, Initial residual = 0.0035017982, Final residual = 7.7747367e-10, No Iterations 3
smoothSolver:  Solving for Uy, Initial residual = 0.0018331987, Final residual = 3.0354841e-10, No Iterations 3
DICPCG:  Solving for p, Initial residual = 0.030955496, Final residual = 0.00029091807, No Iterations 7
DICPCG:  Solving for p, Initial residual = 0.0033787486, Final residual = 2.9907219e-05, No Iterations 54
DICPCG:  Solving for p, Initial residual = 0.00082979415, Final residual = 8.1623238e-06, No Iterations 40
DICPCG:  Solving for p, Initial residual = 9.3290309e-05, Final residual = 8.3579583e-07, No Iterations 27
time step continuity errors : sum local = 5.8224526e-10, global = 6.6406533e-11, cumulative = 5.6594674e-07
DICPCG:  Solving for p, Initial residual = 0.0013808408, Final residual = 1.2561126e-05, No Iterations 35
DICPCG:  Solving for p, Initial residual = 0.00025094129, Final residual = 2.4522435e-06, No Iterations 24
DICPCG:  Solving for p, Initial residual = 2.7545943e-05, Final residual = 9.4374282e-07, No Iterations 12
DICPCG:  Solving for p, Initial residual = 3.9849208e-06, Final residual = 9.1362104e-07, No Iterations 1
time step continuity errors : sum local = 6.3708899e-10, global = -1.2958537e-10, cumulative = 5.6581716e-07
ExecutionTime = 1.03 s  ClockTime = 7 s

fieldMinMax minmaxdomain write:
    min(p) = -3.530078 in cell 189 at location (56.614857 11.932551 0)
    max(p) = 2.5457473 in cell 377 at location (4.640181 5.4643757 0)
    min(U) = (0.3327603 -0.21281508 0) in cell 0 at location (0.66666667 15.333333 0)
    max(U) = (1.3668723 2.1725233 5.415386e-19) in cell 6 at location (46.149765 23.460513 0)

Time = 1.05

Courant Number mean: 0.096047513 max: 0.39444288
smoothSolver:  Solving for Ux, Initial residual = 0.0033393496, Final residual = 8.0408326e-10, No Iterations 3
smoothSolver:  Solving for Uy, Initial residual = 0.0017513288, Final residual = 3.12084e-10, No Iterations 3
DICPCG:  Solving for p, Initial residual = 0.029981933, Final residual = 0.00029957848, No Iterations 14
DICPCG:  Solving for p, Initial residual = 0.0033853954, Final residual = 3.360611e-05, No Iterations 52
DICPCG:  Solving for p, Initial residual = 0.00084178008, Final residual = 7.1218332e-06, No Iterations 46
DICPCG:  Solving for p, Initial residual = 9.4554497e-05, Final residual = 9.6210585e-07, No Iterations 49
time step continuity errors : sum local = 6.4501018e-10, global = 4.8435917e-11, cumulative = 5.6586559e-07
DICPCG:  Solving for p, Initial residual = 0.0013758225, Final residual = 1.3320274e-05, No Iterations 48
DICPCG:  Solving for p, Initial residual = 0.0002501966, Final residual = 2.3214119e-06, No Iterations 23
DICPCG:  Solving for p, Initial residual = 2.751816e-05, Final residual = 9.4383152e-07, No Iterations 8
DICPCG:  Solving for p, Initial residual = 4.0268e-06, Final residual = 9.2982446e-07, No Iterations 1
time step continuity errors : sum local = 6.2392129e-10, global = -1.7395942e-11, cumulative = 5.658482e-07
ExecutionTime = 1.08 s  ClockTime = 7 s

fieldMinMax minmaxdomain write:
    min(p) = -3.6167589 in cell 189 at location (56.614857 11.932551 0)
    max(p) = 2.4319074 in cell 377 at location (4.640181 5.4643757 0)
    min(U) = (0.33511121 -0.20925801 0) in cell 0 at location (0.66666667 15.333333 0)
    max(U) = (1.3677551 2.169339 5.8529255e-19) in cell 6 at location (46.149765 23.460513 0)

Time = 1.1

Courant Number mean: 0.09605834 max: 0.39511254
smoothSolver:  Solving for Ux, Initial residual = 0.0031850398, Final residual = 8.1336153e-10, No Iterations 3
smoothSolver:  Solving for Uy, Initial residual = 0.0016814256, Final residual = 3.1639828e-10, No Iterations 3
DICPCG:  Solving for p, Initial residual = 0.029541614, Final residual = 0.00028799118, No Iterations 17
DICPCG:  Solving for p, Initial residual = 0.0034560445, Final residual = 3.1980579e-05, No Iterations 48
DICPCG:  Solving for p, Initial residual = 0.00082478207, Final residual = 6.2359216e-06, No Iterations 42
DICPCG:  Solving for p, Initial residual = 9.3101047e-05, Final residual = 8.5706262e-07, No Iterations 41
time step continuity errors : sum local = 5.5397952e-10, global = 1.9687755e-11, cumulative = 5.6586788e-07
DICPCG:  Solving for p, Initial residual = 0.0013707265, Final residual = 1.2273013e-05, No Iterations 49
DICPCG:  Solving for p, Initial residual = 0.00025368671, Final residual = 2.4043489e-06, No Iterations 25
DICPCG:  Solving for p, Initial residual = 3.0112173e-05, Final residual = 9.7675579e-07, No Iterations 10
DICPCG:  Solving for p, Initial residual = 4.0640476e-06, Final residual = 8.6387405e-07, No Iterations 1
time step continuity errors : sum local = 5.5886871e-10, global = -1.1121027e-10, cumulative = 5.6575667e-07
ExecutionTime = 1.12 s  ClockTime = 7 s

fieldMinMax minmaxdomain write:
    min(p) = -3.6940997 in cell 189 at location (56.614857 11.932551 0)
    max(p) = 2.3218666 in cell 434 at location (4.640181 10.654973 0)
    min(U) = (0.33741656 -0.20562158 0) in cell 0 at location (0.66666667 15.333333 0)
    max(U) = (1.3684202 2.1661545 6.276984e-19) in cell 6 at location (46.149765 23.460513 0)

Time = 1.15

Courant Number mean: 0.096072042 max: 0.39584556
smoothSolver:  Solving for Ux, Initial residual = 0.0030350976, Final residual = 7.9745043e-10, No Iterations 3
smoothSolver:  Solving for Uy, Initial residual = 0.0016191418, Final residual = 3.2123921e-10, No Iterations 3
DICPCG:  Solving for p, Initial residual = 0.02945487, Final residual = 0.00024625554, No Iterations 17
DICPCG:  Solving for p, Initial residual = 0.0032377595, Final residual = 3.1967825e-05, No Iterations 53
DICPCG:  Solving for p, Initial residual = 0.00076029526, Final residual = 6.4969797e-06, No Iterations 50
DICPCG:  Solving for p, Initial residual = 8.7530701e-05, Final residual = 9.1636355e-07, No Iterations 33
time step continuity errors : sum local = 5.6852528e-10, global = 9.2552001e-11, cumulative = 5.6584923e-07
DICPCG:  Solving for p, Initial residual = 0.0013401961, Final residual = 1.1192733e-05, No Iterations 54
DICPCG:  Solving for p, Initial residual = 0.00023675915, Final residual = 2.165626e-06, No Iterations 12
DICPCG:  Solving for p, Initial residual = 2.7755981e-05, Final residual = 9.473574e-07, No Iterations 8
DICPCG:  Solving for p, Initial residual = 3.8060435e-06, Final residual = 8.7445629e-07, No Iterations 1
time step continuity errors : sum local = 5.4295184e-10, global = 8.577059e-11, cumulative = 5.65935e-07
ExecutionTime = 1.17 s  ClockTime = 7 s

fieldMinMax minmaxdomain write:
    min(p) = -3.7883745 in cell 189 at location (56.614857 11.932551 0)
    max(p) = 2.2379102 in cell 434 at location (4.640181 10.654973 0)
    min(U) = (0.33967952 -0.20192228 0) in cell 0 at location (0.66666667 15.333333 0)
    max(U) = (1.3688965 2.1630026 6.6440985e-19) in cell 6 at location (46.149765 23.460513 0)

Time = 1.2

Courant Number mean: 0.096087718 max: 0.39660302
smoothSolver:  Solving for Ux, Initial residual = 0.0028927025, Final residual = 7.6438464e-10, No Iterations 3
smoothSolver:  Solving for Uy, Initial residual = 0.0015511263, Final residual = 3.1906456e-10, No Iterations 3
DICPCG:  Solving for p, Initial residual = 0.028647823, Final residual = 0.00028462137, No Iterations 7
DICPCG:  Solving for p, Initial residual = 0.00300022, Final residual = 2.7204454e-05, No Iterations 56
DICPCG:  Solving for p, Initial residual = 0.00081977325, Final residual = 7.3267257e-06, No Iterations 37
DICPCG:  Solving for p, Initial residual = 8.9811079e-05, Final residual = 9.2024999e-07, No Iterations 31
time step continuity errors : sum local = 5.5060076e-10, global = 5.822989e-11, cumulative = 5.6599323e-07
DICPCG:  Solving for p, Initial residual = 0.0012735201, Final residual = 1.197809e-05, No Iterations 47
DICPCG:  Solving for p, Initial residual = 0.00022424108, Final residual = 2.1258941e-06, No Iterations 24
DICPCG:  Solving for p, Initial residual = 2.5393409e-05, Final residual = 8.3991273e-07, No Iterations 10
DICPCG:  Solving for p, Initial residual = 3.2451333e-06, Final residual = 7.0371183e-07, No Iterations 1
time step continuity errors : sum local = 4.2141952e-10, global = -1.0839466e-12, cumulative = 5.6599214e-07
ExecutionTime = 1.21 s  ClockTime = 7 s

fieldMinMax minmaxdomain write:
    min(p) = -3.8658292 in cell 189 at location (56.614857 11.932551 0)
    max(p) = 2.1415325 in cell 434 at location (4.640181 10.654973 0)
    min(U) = (0.34190203 -0.19817476 0) in cell 0 at location (0.66666667 15.333333 0)
    max(U) = (1.3691721 2.1598478 7.0297363e-19) in cell 6 at location (46.149765 23.460513 0)

Time = 1.25

Courant Number mean: 0.096104981 max: 0.39742807
smoothSolver:  Solving for Ux, Initial residual = 0.0027686401, Final residual = 7.216904e-10, No Iterations 3
smoothSolver:  Solving for Uy, Initial residual = 0.0014925314, Final residual = 3.1054334e-10, No Iterations 3
DICPCG:  Solving for p, Initial residual = 0.027266868, Final residual = 0.00026605255, No Iterations 19
DICPCG:  Solving for p, Initial residual = 0.0029996415, Final residual = 2.5007268e-05, No Iterations 53
DICPCG:  Solving for p, Initial residual = 0.00075002019, Final residual = 7.3137971e-06, No Iterations 40
DICPCG:  Solving for p, Initial residual = 8.4911678e-05, Final residual = 8.6861459e-07, No Iterations 23
time step continuity errors : sum local = 5.0152497e-10, global = 1.289927e-10, cumulative = 5.6612114e-07
DICPCG:  Solving for p, Initial residual = 0.0012310761, Final residual = 1.1926354e-05, No Iterations 50
DICPCG:  Solving for p, Initial residual = 0.00022021123, Final residual = 2.0392791e-06, No Iterations 28
DICPCG:  Solving for p, Initial residual = 2.7554487e-05, Final residual = 7.0932923e-07, No Iterations 38
DICPCG:  Solving for p, Initial residual = 5.3339588e-06, Final residual = 9.0496975e-07, No Iterations 1
time step continuity errors : sum local = 5.2296133e-10, global = -2.1975441e-11, cumulative = 5.6609916e-07
ExecutionTime = 1.26 s  ClockTime = 7 s

fieldMinMax minmaxdomain write:
    min(p) = -3.9301209 in cell 189 at location (56.614857 11.932551 0)
    max(p) = 2.0463184 in cell 434 at location (4.640181 10.654973 0)
    min(U) = (0.34408493 -0.19439161 0) in cell 0 at location (0.66666667 15.333333 0)
    max(U) = (1.3692525 2.1566822 7.3728046e-19) in cell 6 at location (46.149765 23.460513 0)

Time = 1.3

Courant Number mean: 0.096122357 max: 0.39962476
smoothSolver:  Solving for Ux, Initial residual = 0.0026617978, Final residual = 6.796898e-10, No Iterations 3
smoothSolver:  Solving for Uy, Initial residual = 0.0014435295, Final residual = 3.0310265e-10, No Iterations 3
DICPCG:  Solving for p, Initial residual = 0.026982585, Final residual = 0.00026780071, No Iterations 12
DICPCG:  Solving for p, Initial residual = 0.002942594, Final residual = 2.8081503e-05, No Iterations 55
DICPCG:  Solving for p, Initial residual = 0.00073643352, Final residual = 6.0868149e-06, No Iterations 40
DICPCG:  Solving for p, Initial residual = 8.2862717e-05, Final residual = 9.604221e-07, No Iterations 32
time step continuity errors : sum local = 5.3525229e-10, global = 1.0552054e-10, cumulative = 5.6620468e-07
DICPCG:  Solving for p, Initial residual = 0.0012102529, Final residual = 1.0801133e-05, No Iterations 50
DICPCG:  Solving for p, Initial residual = 0.000220369, Final residual = 1.7265327e-06, No Iterations 27
DICPCG:  Solving for p, Initial residual = 2.6432541e-05, Final residual = 9.0505e-07, No Iterations 15
DICPCG:  Solving for p, Initial residual = 3.7261893e-06, Final residual = 7.6754967e-07, No Iterations 1
time step continuity errors : sum local = 4.2812057e-10, global = -1.2270626e-10, cumulative = 5.6608197e-07
ExecutionTime = 1.3 s  ClockTime = 7 s

fieldMinMax minmaxdomain write:
    min(p) = -3.9958286 in cell 189 at location (56.614857 11.932551 0)
    max(p) = 1.9581126 in cell 434 at location (4.640181 10.654973 0)
    min(U) = (0.34623001 -0.19058527 0) in cell 0 at location (0.66666667 15.333333 0)
    max(U) = (1.3691563 2.1535188 7.6920714e-19) in cell 6 at location (46.149765 23.460513 0)

Time = 1.35

Courant Number mean: 0.096139354 max: 0.40346674
smoothSolver:  Solving for Ux, Initial residual = 0.0025737529, Final residual = 6.5024339e-10, No Iterations 3
smoothSolver:  Solving for Uy, Initial residual = 0.0013987249, Final residual = 2.9502423e-10, No Iterations 3
DICPCG:  Solving for p, Initial residual = 0.0259364, Final residual = 0.0002289834, No Iterations 20
DICPCG:  Solving for p, Initial residual = 0.0028587096, Final residual = 2.7670545e-05, No Iterations 55
DICPCG:  Solving for p, Initial residual = 0.00070990271, Final residual = 6.2460624e-06, No Iterations 14
DICPCG:  Solving for p, Initial residual = 7.6027962e-05, Final residual = 9.1433809e-07, No Iterations 48
time step continuity errors : sum local = 4.9282721e-10, global = 1.0739299e-11, cumulative = 5.6609271e-07
DICPCG:  Solving for p, Initial residual = 0.0011753413, Final residual = 9.3668824e-06, No Iterations 58
DICPCG:  Solving for p, Initial residual = 0.00021761129, Final residual = 2.1307221e-06, No Iterations 12
DICPCG:  Solving for p, Initial residual = 2.0188788e-05, Final residual = 8.6926349e-07, No Iterations 14
DICPCG:  Solving for p, Initial residual = 3.3544092e-06, Final residual = 7.5441108e-07, No Iterations 1
time step continuity errors : sum local = 4.0706881e-10, global = 3.8886088e-11, cumulative = 5.661316e-07
ExecutionTime = 1.34 s  ClockTime = 7 s

fieldMinMax minmaxdomain write:
    min(p) = -4.0592701 in cell 189 at location (56.614857 11.932551 0)
    max(p) = 1.8724595 in cell 434 at location (4.640181 10.654973 0)
    min(U) = (0.34833866 -0.18676696 0) in cell 0 at location (0.66666667 15.333333 0)
    max(U) = (1.3688937 2.1503569 8.0005026e-19) in cell 6 at location (46.149765 23.460513 0)

Time = 1.4

Courant Number mean: 0.096155855 max: 0.40722932
smoothSolver:  Solving for Ux, Initial residual = 0.0024909664, Final residual = 6.2425816e-10, No Iterations 3
smoothSolver:  Solving for Uy, Initial residual = 0.0013600066, Final residual = 2.9212597e-10, No Iterations 3
DICPCG:  Solving for p, Initial residual = 0.025717091, Final residual = 0.00022335153, No Iterations 20
DICPCG:  Solving for p, Initial residual = 0.0028721559, Final residual = 2.839675e-05, No Iterations 54
DICPCG:  Solving for p, Initial residual = 0.00071107225, Final residual = 6.8447926e-06, No Iterations 14
DICPCG:  Solving for p, Initial residual = 7.7996653e-05, Final residual = 9.734356e-07, No Iterations 48
time step continuity errors : sum local = 5.0880204e-10, global = -2.5724815e-13, cumulative = 5.6613134e-07
DICPCG:  Solving for p, Initial residual = 0.0011712708, Final residual = 1.0329894e-05, No Iterations 58
DICPCG:  Solving for p, Initial residual = 0.00022187213, Final residual = 2.1321228e-06, No Iterations 12
DICPCG:  Solving for p, Initial residual = 2.1124521e-05, Final residual = 8.6838474e-07, No Iterations 14
DICPCG:  Solving for p, Initial residual = 3.6136588e-06, Final residual = 8.2688501e-07, No Iterations 1
time step continuity errors : sum local = 4.3264853e-10, global = 3.34311e-11, cumulative = 5.6616477e-07
ExecutionTime = 1.39 s  ClockTime = 7 s

fieldMinMax minmaxdomain write:
    min(p) = -4.1180388 in cell 189 at location (56.614857 11.932551 0)
    max(p) = 1.7888178 in cell 434 at location (4.640181 10.654973 0)
    min(U) = (0.35041202 -0.18294686 0) in cell 0 at location (0.66666667 15.333333 0)
    max(U) = (1.3684738 2.1471949 8.2894128e-19) in cell 6 at location (46.149765 23.460513 0)

Time = 1.45

Courant Number mean: 0.096172102 max: 0.410908
smoothSolver:  Solving for Ux, Initial residual = 0.0024065507, Final residual = 5.8527828e-10, No Iterations 3
smoothSolver:  Solving for Uy, Initial residual = 0.0013252374, Final residual = 2.9063666e-10, No Iterations 3
DICPCG:  Solving for p, Initial residual = 0.025328494, Final residual = 0.00021700821, No Iterations 20
DICPCG:  Solving for p, Initial residual = 0.0027633817, Final residual = 2.6037323e-05, No Iterations 55
DICPCG:  Solving for p, Initial residual = 0.00068315826, Final residual = 6.3903065e-06, No Iterations 14
DICPCG:  Solving for p, Initial residual = 7.3670303e-05, Final residual = 8.4619123e-07, No Iterations 50
time step continuity errors : sum local = 4.2937034e-10, global = 7.2195869e-12, cumulative = 5.6617199e-07
DICPCG:  Solving for p, Initial residual = 0.0011622288, Final residual = 1.0461759e-05, No Iterations 58
DICPCG:  Solving for p, Initial residual = 0.00021551772, Final residual = 2.1183978e-06, No Iterations 12
DICPCG:  Solving for p, Initial residual = 2.1003636e-05, Final residual = 9.8232135e-07, No Iterations 8
DICPCG:  Solving for p, Initial residual = 3.3513921e-06, Final residual = 8.6406749e-07, No Iterations 1
time step continuity errors : sum local = 4.3882834e-10, global = -1.0898379e-11, cumulative = 5.6616109e-07
ExecutionTime = 1.43 s  ClockTime = 7 s

fieldMinMax minmaxdomain write:
    min(p) = -4.1715324 in cell 189 at location (56.614857 11.932551 0)
    max(p) = 1.7101505 in cell 434 at location (4.640181 10.654973 0)
    min(U) = (0.35245115 -0.1791343 0) in cell 0 at location (0.66666667 15.333333 0)
    max(U) = (1.3679063 2.1440338 8.5478594e-19) in cell 6 at location (46.149765 23.460513 0)

Time = 1.5

Courant Number mean: 0.09618832 max: 0.41448612
smoothSolver:  Solving for Ux, Initial residual = 0.0023274144, Final residual = 5.4290883e-10, No Iterations 3
smoothSolver:  Solving for Uy, Initial residual = 0.0012927316, Final residual = 2.909202e-10, No Iterations 3
DICPCG:  Solving for p, Initial residual = 0.024697015, Final residual = 0.00022119175, No Iterations 20
DICPCG:  Solving for p, Initial residual = 0.0026661397, Final residual = 2.1831448e-05, No Iterations 52
DICPCG:  Solving for p, Initial residual = 0.00065351574, Final residual = 5.5650301e-06, No Iterations 45
DICPCG:  Solving for p, Initial residual = 7.5922345e-05, Final residual = 9.1666624e-07, No Iterations 29
time step continuity errors : sum local = 4.5226624e-10, global = 1.0935558e-10, cumulative = 5.6627045e-07
DICPCG:  Solving for p, Initial residual = 0.0011134097, Final residual = 1.0656894e-05, No Iterations 58
DICPCG:  Solving for p, Initial residual = 0.00020272585, Final residual = 1.9441063e-06, No Iterations 15
DICPCG:  Solving for p, Initial residual = 2.0109077e-05, Final residual = 8.9531253e-07, No Iterations 8
DICPCG:  Solving for p, Initial residual = 3.3247683e-06, Final residual = 8.1052468e-07, No Iterations 1
time step continuity errors : sum local = 4.0013756e-10, global = 9.8141934e-12, cumulative = 5.6628026e-07
ExecutionTime = 1.47 s  ClockTime = 7 s

fieldMinMax minmaxdomain write:
    min(p) = -4.2203423 in cell 189 at location (56.614857 11.932551 0)
    max(p) = 1.6348491 in cell 434 at location (4.640181 10.654973 0)
    min(U) = (0.35445698 -0.17533771 0) in cell 0 at location (0.66666667 15.333333 0)
    max(U) = (1.3671953 2.1408672 8.7824504e-19) in cell 6 at location (46.149765 23.460513 0)

Time = 1.55

Courant Number mean: 0.096204218 max: 0.41794429
smoothSolver:  Solving for Ux, Initial residual = 0.0022519905, Final residual = 4.9807138e-10, No Iterations 3
smoothSolver:  Solving for Uy, Initial residual = 0.0012625558, Final residual = 2.9699101e-10, No Iterations 3
DICPCG:  Solving for p, Initial residual = 0.024098679, Final residual = 0.00021720763, No Iterations 20
DICPCG:  Solving for p, Initial residual = 0.0026400107, Final residual = 1.7822143e-05, No Iterations 52
DICPCG:  Solving for p, Initial residual = 0.00062649177, Final residual = 6.1684679e-06, No Iterations 42
DICPCG:  Solving for p, Initial residual = 7.2513068e-05, Final residual = 9.7393683e-07, No Iterations 23
time step continuity errors : sum local = 4.6783598e-10, global = 8.3364486e-11, cumulative = 5.6636363e-07
DICPCG:  Solving for p, Initial residual = 0.0010847818, Final residual = 5.9394321e-06, No Iterations 59
DICPCG:  Solving for p, Initial residual = 0.00019804529, Final residual = 1.842491e-06, No Iterations 13
DICPCG:  Solving for p, Initial residual = 1.8571059e-05, Final residual = 7.6352962e-07, No Iterations 8
DICPCG:  Solving for p, Initial residual = 3.2189375e-06, Final residual = 7.4130249e-07, No Iterations 1
time step continuity errors : sum local = 3.562998e-10, global = 1.0122831e-11, cumulative = 5.6637375e-07
ExecutionTime = 1.52 s  ClockTime = 7 s

fieldMinMax minmaxdomain write:
    min(p) = -4.2673264 in cell 189 at location (56.614857 11.932551 0)
    max(p) = 1.5823862 in cell 16 at location (39.601552 1.4668119 0)
    min(U) = (0.35643038 -0.17156473 0) in cell 0 at location (0.66666667 15.333333 0)
    max(U) = (1.3663476 2.1376931 8.9932907e-19) in cell 6 at location (46.149765 23.460513 0)

Time = 1.6

Courant Number mean: 0.096219998 max: 0.42126288
smoothSolver:  Solving for Ux, Initial residual = 0.0021843258, Final residual = 4.5869311e-10, No Iterations 3
smoothSolver:  Solving for Uy, Initial residual = 0.0012342821, Final residual = 3.0057183e-10, No Iterations 3
DICPCG:  Solving for p, Initial residual = 0.023746757, Final residual = 0.00022363525, No Iterations 20
DICPCG:  Solving for p, Initial residual = 0.0026241074, Final residual = 2.1482699e-05, No Iterations 52
DICPCG:  Solving for p, Initial residual = 0.00062556733, Final residual = 6.0649237e-06, No Iterations 42
DICPCG:  Solving for p, Initial residual = 7.3246722e-05, Final residual = 7.892193e-07, No Iterations 23
time step continuity errors : sum local = 3.6954149e-10, global = 6.8506672e-11, cumulative = 5.6644226e-07
DICPCG:  Solving for p, Initial residual = 0.0010485066, Final residual = 7.3180676e-06, No Iterations 59
DICPCG:  Solving for p, Initial residual = 0.00019740936, Final residual = 1.8461997e-06, No Iterations 15
DICPCG:  Solving for p, Initial residual = 1.8354687e-05, Final residual = 8.1669865e-07, No Iterations 8
DICPCG:  Solving for p, Initial residual = 3.090798e-06, Final residual = 7.0651446e-07, No Iterations 1
time step continuity errors : sum local = 3.3103087e-10, global = 2.2520355e-13, cumulative = 5.6644248e-07
ExecutionTime = 1.56 s  ClockTime = 7 s

fieldMinMax minmaxdomain write:
    min(p) = -4.3149672 in cell 189 at location (56.614857 11.932551 0)
    max(p) = 1.5346125 in cell 16 at location (39.601552 1.4668119 0)
    min(U) = (0.35837214 -0.1678222 0) in cell 0 at location (0.66666667 15.333333 0)
    max(U) = (1.3653704 2.1345113 9.1955672e-19) in cell 6 at location (46.149765 23.460513 0)

Time = 1.65

Courant Number mean: 0.096235523 max: 0.42443778
smoothSolver:  Solving for Ux, Initial residual = 0.002123323, Final residual = 4.2224079e-10, No Iterations 3
smoothSolver:  Solving for Uy, Initial residual = 0.0012057457, Final residual = 3.03315e-10, No Iterations 3
DICPCG:  Solving for p, Initial residual = 0.023216373, Final residual = 0.00022995172, No Iterations 20
DICPCG:  Solving for p, Initial residual = 0.0025413658, Final residual = 1.9313586e-05, No Iterations 53
DICPCG:  Solving for p, Initial residual = 0.00061162404, Final residual = 5.7908704e-06, No Iterations 40
DICPCG:  Solving for p, Initial residual = 7.2584243e-05, Final residual = 8.2691314e-07, No Iterations 23
time step continuity errors : sum local = 3.7800752e-10, global = 4.9352458e-11, cumulative = 5.6649184e-07
DICPCG:  Solving for p, Initial residual = 0.0010150849, Final residual = 8.9751148e-06, No Iterations 59
DICPCG:  Solving for p, Initial residual = 0.00020165492, Final residual = 1.9262807e-06, No Iterations 16
DICPCG:  Solving for p, Initial residual = 1.8467184e-05, Final residual = 9.6560764e-07, No Iterations 8
DICPCG:  Solving for p, Initial residual = 3.2203654e-06, Final residual = 7.6606703e-07, No Iterations 1
time step continuity errors : sum local = 3.5042397e-10, global = -1.3479704e-11, cumulative = 5.6647836e-07
ExecutionTime = 1.6 s  ClockTime = 8 s

fieldMinMax minmaxdomain write:
    min(p) = -4.3611725 in cell 189 at location (56.614857 11.932551 0)
    max(p) = 1.4900315 in cell 16 at location (39.601552 1.4668119 0)
    min(U) = (0.36028304 -0.16411622 0) in cell 0 at location (0.66666667 15.333333 0)
    max(U) = (1.3642705 2.1313211 9.3763718e-19) in cell 6 at location (46.149765 23.460513 0)

Time = 1.7

Courant Number mean: 0.096251129 max: 0.42747612
smoothSolver:  Solving for Ux, Initial residual = 0.0020699978, Final residual = 3.9321698e-10, No Iterations 3
smoothSolver:  Solving for Uy, Initial residual = 0.0011776264, Final residual = 3.0421074e-10, No Iterations 3
DICPCG:  Solving for p, Initial residual = 0.022820797, Final residual = 0.00020723449, No Iterations 21
DICPCG:  Solving for p, Initial residual = 0.0024613009, Final residual = 2.2977425e-05, No Iterations 54
DICPCG:  Solving for p, Initial residual = 0.00057406239, Final residual = 5.5855755e-06, No Iterations 14
DICPCG:  Solving for p, Initial residual = 6.4382318e-05, Final residual = 9.3282062e-07, No Iterations 48
time step continuity errors : sum local = 4.1792009e-10, global = -2.7510454e-11, cumulative = 5.6645085e-07
DICPCG:  Solving for p, Initial residual = 0.0009954466, Final residual = 6.9753005e-06, No Iterations 61
DICPCG:  Solving for p, Initial residual = 0.00020258195, Final residual = 1.8367765e-06, No Iterations 15
DICPCG:  Solving for p, Initial residual = 1.8526459e-05, Final residual = 8.7828727e-07, No Iterations 8
DICPCG:  Solving for p, Initial residual = 3.3178167e-06, Final residual = 7.9174819e-07, No Iterations 1
time step continuity errors : sum local = 3.5495931e-10, global = 9.2889027e-14, cumulative = 5.6645094e-07
ExecutionTime = 1.65 s  ClockTime = 8 s

fieldMinMax minmaxdomain write:
    min(p) = -4.4047848 in cell 189 at location (56.614857 11.932551 0)
    max(p) = 1.4490214 in cell 16 at location (39.601552 1.4668119 0)
    min(U) = (0.36216386 -0.16045226 0) in cell 0 at location (0.66666667 15.333333 0)
    max(U) = (1.3630537 2.1281216 9.5346151e-19) in cell 6 at location (46.149765 23.460513 0)

Time = 1.75

Courant Number mean: 0.096266557 max: 0.43039113
smoothSolver:  Solving for Ux, Initial residual = 0.002018243, Final residual = 3.70824e-10, No Iterations 3
smoothSolver:  Solving for Uy, Initial residual = 0.0011533371, Final residual = 3.0539092e-10, No Iterations 3
DICPCG:  Solving for p, Initial residual = 0.022503881, Final residual = 0.00022018784, No Iterations 21
DICPCG:  Solving for p, Initial residual = 0.0024379495, Final residual = 2.0504916e-05, No Iterations 57
DICPCG:  Solving for p, Initial residual = 0.00055030758, Final residual = 5.0850769e-06, No Iterations 14
DICPCG:  Solving for p, Initial residual = 6.0243235e-05, Final residual = 8.1299683e-07, No Iterations 48
time step continuity errors : sum local = 3.5800813e-10, global = -5.2206709e-12, cumulative = 5.6644572e-07
DICPCG:  Solving for p, Initial residual = 0.00095614317, Final residual = 7.6609866e-06, No Iterations 61
DICPCG:  Solving for p, Initial residual = 0.00020438007, Final residual = 1.9933197e-06, No Iterations 16
DICPCG:  Solving for p, Initial residual = 1.946818e-05, Final residual = 9.7139253e-07, No Iterations 8
DICPCG:  Solving for p, Initial residual = 3.5191216e-06, Final residual = 8.709749e-07, No Iterations 1
time step continuity errors : sum local = 3.8379616e-10, global = 4.4276801e-12, cumulative = 5.6645015e-07
ExecutionTime = 1.69 s  ClockTime = 8 s

fieldMinMax minmaxdomain write:
    min(p) = -4.4456894 in cell 189 at location (56.614857 11.932551 0)
    max(p) = 1.4109242 in cell 16 at location (39.601552 1.4668119 0)
    min(U) = (0.36401532 -0.15683511 0) in cell 0 at location (0.66666667 15.333333 0)
    max(U) = (1.3617247 2.1249104 9.6742075e-19) in cell 6 at location (46.149765 23.460513 0)

Time = 1.8

Courant Number mean: 0.096282787 max: 0.43319466
smoothSolver:  Solving for Ux, Initial residual = 0.0019654056, Final residual = 3.4690022e-10, No Iterations 3
smoothSolver:  Solving for Uy, Initial residual = 0.0011294054, Final residual = 3.0262001e-10, No Iterations 3
DICPCG:  Solving for p, Initial residual = 0.022292396, Final residual = 0.00022067741, No Iterations 12
DICPCG:  Solving for p, Initial residual = 0.0024839479, Final residual = 1.9466496e-05, No Iterations 57
DICPCG:  Solving for p, Initial residual = 0.0005433619, Final residual = 4.9014487e-06, No Iterations 41
DICPCG:  Solving for p, Initial residual = 6.0159155e-05, Final residual = 9.8368759e-07, No Iterations 22
time step continuity errors : sum local = 4.2478923e-10, global = -5.8662048e-12, cumulative = 5.6644428e-07
DICPCG:  Solving for p, Initial residual = 0.000911052, Final residual = 7.2239138e-06, No Iterations 59
DICPCG:  Solving for p, Initial residual = 0.00018996315, Final residual = 1.8987525e-06, No Iterations 15
DICPCG:  Solving for p, Initial residual = 1.8624271e-05, Final residual = 9.0334621e-07, No Iterations 8
DICPCG:  Solving for p, Initial residual = 3.341624e-06, Final residual = 8.1375079e-07, No Iterations 1
time step continuity errors : sum local = 3.5155951e-10, global = -1.5177786e-12, cumulative = 5.6644276e-07
ExecutionTime = 1.74 s  ClockTime = 8 s

fieldMinMax minmaxdomain write:
    min(p) = -4.4928556 in cell 189 at location (56.614857 11.932551 0)
    max(p) = 1.3790309 in cell 16 at location (39.601552 1.4668119 0)
    min(U) = (0.36583802 -0.15326882 0) in cell 0 at location (0.66666667 15.333333 0)
    max(U) = (1.3602979 2.1217018 9.7819446e-19) in cell 6 at location (46.149765 23.460513 0)

Time = 1.85

Courant Number mean: 0.096302188 max: 0.43587312
smoothSolver:  Solving for Ux, Initial residual = 0.0019190622, Final residual = 3.2356165e-10, No Iterations 3
smoothSolver:  Solving for Uy, Initial residual = 0.0011035936, Final residual = 2.9802844e-10, No Iterations 3
DICPCG:  Solving for p, Initial residual = 0.023336011, Final residual = 0.00020901343, No Iterations 11
DICPCG:  Solving for p, Initial residual = 0.0024717049, Final residual = 2.0997269e-05, No Iterations 55
DICPCG:  Solving for p, Initial residual = 0.00052337225, Final residual = 4.908431e-06, No Iterations 40
DICPCG:  Solving for p, Initial residual = 5.9892941e-05, Final residual = 9.1368286e-07, No Iterations 26
time step continuity errors : sum local = 3.8532036e-10, global = 1.4134643e-11, cumulative = 5.664569e-07
DICPCG:  Solving for p, Initial residual = 0.00090689141, Final residual = 7.2264739e-06, No Iterations 54
DICPCG:  Solving for p, Initial residual = 0.00018188467, Final residual = 1.4242945e-06, No Iterations 20
DICPCG:  Solving for p, Initial residual = 2.0288931e-05, Final residual = 9.3848453e-07, No Iterations 11
DICPCG:  Solving for p, Initial residual = 3.5426722e-06, Final residual = 7.7592001e-07, No Iterations 1
time step continuity errors : sum local = 3.2733529e-10, global = -3.0093645e-11, cumulative = 5.664268e-07
ExecutionTime = 1.78 s  ClockTime = 8 s

fieldMinMax minmaxdomain write:
    min(p) = -4.5425168 in cell 189 at location (56.614857 11.932551 0)
    max(p) = 1.3499142 in cell 16 at location (39.601552 1.4668119 0)
    min(U) = (0.36763227 -0.1497566 0) in cell 0 at location (0.66666667 15.333333 0)
    max(U) = (1.3587798 2.1184971 9.8773742e-19) in cell 6 at location (46.149765 23.460513 0)

Time = 1.9

Courant Number mean: 0.096320894 max: 0.43841929
smoothSolver:  Solving for Ux, Initial residual = 0.0018752171, Final residual = 3.0243373e-10, No Iterations 3
smoothSolver:  Solving for Uy, Initial residual = 0.0010788191, Final residual = 2.9174602e-10, No Iterations 3
DICPCG:  Solving for p, Initial residual = 0.019841799, Final residual = 0.000197434, No Iterations 21
DICPCG:  Solving for p, Initial residual = 0.0022342859, Final residual = 2.2193532e-05, No Iterations 55
DICPCG:  Solving for p, Initial residual = 0.00046394213, Final residual = 4.4488117e-06, No Iterations 17
DICPCG:  Solving for p, Initial residual = 5.2999357e-05, Final residual = 9.3419989e-07, No Iterations 44
time step continuity errors : sum local = 3.8735573e-10, global = -1.9743648e-11, cumulative = 5.6640706e-07
DICPCG:  Solving for p, Initial residual = 0.00079970332, Final residual = 7.6431648e-06, No Iterations 61
DICPCG:  Solving for p, Initial residual = 0.00019497959, Final residual = 1.9454275e-06, No Iterations 16
DICPCG:  Solving for p, Initial residual = 2.1766295e-05, Final residual = 9.5175156e-07, No Iterations 8
DICPCG:  Solving for p, Initial residual = 3.8825249e-06, Final residual = 9.4678256e-07, No Iterations 1
time step continuity errors : sum local = 3.9279293e-10, global = 1.2598061e-12, cumulative = 5.6640832e-07
ExecutionTime = 1.82 s  ClockTime = 8 s

fieldMinMax minmaxdomain write:
    min(p) = -4.5831997 in cell 189 at location (56.614857 11.932551 0)
    max(p) = 1.3214527 in cell 16 at location (39.601552 1.4668119 0)
    min(U) = (0.36939836 -0.14630109 0) in cell 0 at location (0.66666667 15.333333 0)
    max(U) = (1.3571686 2.1152857 9.9713536e-19) in cell 6 at location (46.149765 23.460513 0)

Time = 1.95

Courant Number mean: 0.096339222 max: 0.44086658
smoothSolver:  Solving for Ux, Initial residual = 0.0018271207, Final residual = 2.9821042e-10, No Iterations 3
smoothSolver:  Solving for Uy, Initial residual = 0.001057205, Final residual = 2.8622484e-10, No Iterations 3
DICPCG:  Solving for p, Initial residual = 0.019379449, Final residual = 0.00017011148, No Iterations 22
DICPCG:  Solving for p, Initial residual = 0.0021871526, Final residual = 1.6552633e-05, No Iterations 57
DICPCG:  Solving for p, Initial residual = 0.00043649376, Final residual = 4.0818922e-06, No Iterations 17
DICPCG:  Solving for p, Initial residual = 4.9017765e-05, Final residual = 7.3132389e-07, No Iterations 47
time step continuity errors : sum local = 2.9872148e-10, global = 2.4286401e-12, cumulative = 5.6641075e-07
DICPCG:  Solving for p, Initial residual = 0.00078958105, Final residual = 5.5564956e-06, No Iterations 62
DICPCG:  Solving for p, Initial residual = 0.00019758183, Final residual = 1.8869396e-06, No Iterations 17
DICPCG:  Solving for p, Initial residual = 2.244487e-05, Final residual = 9.0949922e-07, No Iterations 9
DICPCG:  Solving for p, Initial residual = 4.0319928e-06, Final residual = 9.649901e-07, No Iterations 1
time step continuity errors : sum local = 3.9439897e-10, global = 4.3768256e-12, cumulative = 5.6641512e-07
ExecutionTime = 1.87 s  ClockTime = 8 s

fieldMinMax minmaxdomain write:
    min(p) = -4.6228652 in cell 189 at location (56.614857 11.932551 0)
    max(p) = 1.2957854 in cell 16 at location (39.601552 1.4668119 0)
    min(U) = (0.37113651 -0.14290434 0) in cell 0 at location (0.66666667 15.333333 0)
    max(U) = (1.3554677 2.1120682 1.004765e-18) in cell 6 at location (46.149765 23.460513 0)

Time = 2

Courant Number mean: 0.096357468 max: 0.44322644
smoothSolver:  Solving for Ux, Initial residual = 0.0017829594, Final residual = 2.9283894e-10, No Iterations 3
smoothSolver:  Solving for Uy, Initial residual = 0.0010362951, Final residual = 2.800315e-10, No Iterations 3
DICPCG:  Solving for p, Initial residual = 0.019511685, Final residual = 0.00018175404, No Iterations 22
DICPCG:  Solving for p, Initial residual = 0.0022276307, Final residual = 1.9038633e-05, No Iterations 57
DICPCG:  Solving for p, Initial residual = 0.00041919655, Final residual = 3.550461e-06, No Iterations 17
DICPCG:  Solving for p, Initial residual = 4.8123876e-05, Final residual = 7.4060115e-07, No Iterations 44
time step continuity errors : sum local = 2.9857957e-10, global = -2.1320208e-13, cumulative = 5.6641491e-07
DICPCG:  Solving for p, Initial residual = 0.00079783375, Final residual = 7.9038452e-06, No Iterations 34
DICPCG:  Solving for p, Initial residual = 0.00019842299, Final residual = 1.6014071e-06, No Iterations 42
DICPCG:  Solving for p, Initial residual = 3.1301458e-05, Final residual = 9.2532795e-07, No Iterations 7
DICPCG:  Solving for p, Initial residual = 4.390983e-06, Final residual = 6.1599101e-07, No Iterations 2
time step continuity errors : sum local = 2.4848443e-10, global = 4.4900397e-13, cumulative = 5.6641536e-07
ExecutionTime = 1.92 s  ClockTime = 8 s

fieldMinMax minmaxdomain write:
    min(p) = -4.6596997 in cell 189 at location (56.614857 11.932551 0)
    max(p) = 1.273491 in cell 16 at location (39.601552 1.4668119 0)
    min(U) = (0.37284693 -0.13956795 0) in cell 0 at location (0.66666667 15.333333 0)
    max(U) = (1.3536802 2.108846 1.0105584e-18) in cell 6 at location (46.149765 23.460513 0)

Time = 2.05

Courant Number mean: 0.096375212 max: 0.44552783
smoothSolver:  Solving for Ux, Initial residual = 0.0017440964, Final residual = 2.895842e-10, No Iterations 3
smoothSolver:  Solving for Uy, Initial residual = 0.0010165729, Final residual = 2.7475022e-10, No Iterations 3
DICPCG:  Solving for p, Initial residual = 0.019028003, Final residual = 0.0001744241, No Iterations 22
DICPCG:  Solving for p, Initial residual = 0.0021047145, Final residual = 1.9869161e-05, No Iterations 56
DICPCG:  Solving for p, Initial residual = 0.00039502486, Final residual = 3.5444579e-06, No Iterations 17
DICPCG:  Solving for p, Initial residual = 4.5427619e-05, Final residual = 7.9801466e-07, No Iterations 44
time step continuity errors : sum local = 3.1789199e-10, global = -8.810763e-12, cumulative = 5.6640655e-07
DICPCG:  Solving for p, Initial residual = 0.00076930484, Final residual = 7.5159481e-06, No Iterations 34
DICPCG:  Solving for p, Initial residual = 0.00019705005, Final residual = 1.7723903e-06, No Iterations 42
DICPCG:  Solving for p, Initial residual = 3.2078296e-05, Final residual = 9.5522909e-07, No Iterations 7
DICPCG:  Solving for p, Initial residual = 4.5730317e-06, Final residual = 6.5007954e-07, No Iterations 2
time step continuity errors : sum local = 2.591004e-10, global = 1.592861e-11, cumulative = 5.6642248e-07
ExecutionTime = 1.96 s  ClockTime = 8 s

fieldMinMax minmaxdomain write:
    min(p) = -4.6967234 in cell 189 at location (56.614857 11.932551 0)
    max(p) = 1.2604092 in cell 1 at location (52.87257 -4.1748977 0)
    min(U) = (0.37452972 -0.13629299 0) in cell 0 at location (0.66666667 15.333333 0)
    max(U) = (1.3518083 2.1056168 1.01595e-18) in cell 6 at location (46.149765 23.460513 0)

Time = 2.1

Courant Number mean: 0.096392646 max: 0.44776077
smoothSolver:  Solving for Ux, Initial residual = 0.0017118789, Final residual = 2.8488837e-10, No Iterations 3
smoothSolver:  Solving for Uy, Initial residual = 0.00099664882, Final residual = 2.6804416e-10, No Iterations 3
DICPCG:  Solving for p, Initial residual = 0.018459189, Final residual = 0.00016220851, No Iterations 21
DICPCG:  Solving for p, Initial residual = 0.0022111661, Final residual = 1.6769669e-05, No Iterations 46
DICPCG:  Solving for p, Initial residual = 0.00036933891, Final residual = 3.2961941e-06, No Iterations 17
DICPCG:  Solving for p, Initial residual = 4.7314234e-05, Final residual = 9.0099791e-07, No Iterations 46
time step continuity errors : sum local = 3.5381384e-10, global = 1.5294029e-12, cumulative = 5.6642401e-07
DICPCG:  Solving for p, Initial residual = 0.00077723651, Final residual = 7.1588196e-06, No Iterations 33
DICPCG:  Solving for p, Initial residual = 0.00021067321, Final residual = 1.5839738e-06, No Iterations 44
DICPCG:  Solving for p, Initial residual = 3.1870737e-05, Final residual = 9.3496594e-07, No Iterations 16
DICPCG:  Solving for p, Initial residual = 5.4640665e-06, Final residual = 6.440212e-07, No Iterations 2
time step continuity errors : sum local = 2.5298962e-10, global = -1.8123012e-11, cumulative = 5.6640588e-07
ExecutionTime = 2 s  ClockTime = 8 s

fieldMinMax minmaxdomain write:
    min(p) = -4.7426823 in cell 189 at location (56.614857 11.932551 0)
    max(p) = 1.2731249 in cell 1 at location (52.87257 -4.1748977 0)
    min(U) = (0.37618503 -0.13308023 0) in cell 0 at location (0.66666667 15.333333 0)
    max(U) = (1.3498664 2.1024007 1.017971e-18) in cell 6 at location (46.149765 23.460513 0)

Time = 2.15

Courant Number mean: 0.096410801 max: 0.44992373
smoothSolver:  Solving for Ux, Initial residual = 0.0016757942, Final residual = 2.79286e-10, No Iterations 3
smoothSolver:  Solving for Uy, Initial residual = 0.00097835618, Final residual = 2.6129311e-10, No Iterations 3
DICPCG:  Solving for p, Initial residual = 0.017867406, Final residual = 0.000167531, No Iterations 21
DICPCG:  Solving for p, Initial residual = 0.0021376814, Final residual = 2.0427024e-05, No Iterations 56
DICPCG:  Solving for p, Initial residual = 0.00035602474, Final residual = 3.4439501e-06, No Iterations 16
DICPCG:  Solving for p, Initial residual = 4.4782208e-05, Final residual = 7.6021708e-07, No Iterations 47
time step continuity errors : sum local = 2.9477878e-10, global = -9.043322e-12, cumulative = 5.6639684e-07
DICPCG:  Solving for p, Initial residual = 0.00073681108, Final residual = 7.0357821e-06, No Iterations 33
DICPCG:  Solving for p, Initial residual = 0.00020055122, Final residual = 1.6625404e-06, No Iterations 44
DICPCG:  Solving for p, Initial residual = 3.0369805e-05, Final residual = 8.9550891e-07, No Iterations 17
DICPCG:  Solving for p, Initial residual = 5.4387003e-06, Final residual = 6.9093223e-07, No Iterations 2
time step continuity errors : sum local = 2.6800468e-10, global = -3.4308091e-11, cumulative = 5.6636253e-07
ExecutionTime = 2.05 s  ClockTime = 8 s

fieldMinMax minmaxdomain write:
    min(p) = -4.7849468 in cell 189 at location (56.614857 11.932551 0)
    max(p) = 1.2863541 in cell 1 at location (52.87257 -4.1748977 0)
    min(U) = (0.37781293 -0.12993008 0) in cell 0 at location (0.66666667 15.333333 0)
    max(U) = (1.3478534 2.0991893 1.0195097e-18) in cell 6 at location (46.149765 23.460513 0)

Time = 2.2

Courant Number mean: 0.096429035 max: 0.45201986
smoothSolver:  Solving for Ux, Initial residual = 0.0016412307, Final residual = 2.7258934e-10, No Iterations 3
smoothSolver:  Solving for Uy, Initial residual = 0.00096080699, Final residual = 2.5382159e-10, No Iterations 3
DICPCG:  Solving for p, Initial residual = 0.017565777, Final residual = 0.00015894858, No Iterations 21
DICPCG:  Solving for p, Initial residual = 0.0021108391, Final residual = 1.5948268e-05, No Iterations 48
DICPCG:  Solving for p, Initial residual = 0.00032004947, Final residual = 2.9294241e-06, No Iterations 17
DICPCG:  Solving for p, Initial residual = 4.2797047e-05, Final residual = 9.9463486e-07, No Iterations 17
time step continuity errors : sum local = 3.8130357e-10, global = -7.8087441e-11, cumulative = 5.6628445e-07
DICPCG:  Solving for p, Initial residual = 0.00071403807, Final residual = 6.6379968e-06, No Iterations 33
DICPCG:  Solving for p, Initial residual = 0.00019652521, Final residual = 1.8984784e-06, No Iterations 54
DICPCG:  Solving for p, Initial residual = 2.8657475e-05, Final residual = 9.2857461e-07, No Iterations 8
DICPCG:  Solving for p, Initial residual = 4.6026999e-06, Final residual = 7.327985e-07, No Iterations 2
time step continuity errors : sum local = 2.809928e-10, global = -1.7955185e-11, cumulative = 5.6626649e-07
ExecutionTime = 2.09 s  ClockTime = 8 s

fieldMinMax minmaxdomain write:
    min(p) = -4.8271196 in cell 189 at location (56.614857 11.932551 0)
    max(p) = 1.3013114 in cell 1 at location (52.87257 -4.1748977 0)
    min(U) = (0.37941349 -0.1268427 0) in cell 0 at location (0.66666667 15.333333 0)
    max(U) = (1.3457768 2.0959899 1.0191275e-18) in cell 6 at location (46.149765 23.460513 0)

Time = 2.25

Courant Number mean: 0.096446933 max: 0.4540566
smoothSolver:  Solving for Ux, Initial residual = 0.0016060122, Final residual = 2.6276388e-10, No Iterations 3
smoothSolver:  Solving for Uy, Initial residual = 0.0009446478, Final residual = 2.4586489e-10, No Iterations 3
DICPCG:  Solving for p, Initial residual = 0.016359386, Final residual = 0.00015340458, No Iterations 22
DICPCG:  Solving for p, Initial residual = 0.0018828235, Final residual = 1.3663741e-05, No Iterations 57
DICPCG:  Solving for p, Initial residual = 0.00030568253, Final residual = 2.3662602e-06, No Iterations 17
DICPCG:  Solving for p, Initial residual = 3.7786291e-05, Final residual = 8.6607339e-07, No Iterations 45
time step continuity errors : sum local = 3.2903816e-10, global = 1.8105084e-11, cumulative = 5.662846e-07
DICPCG:  Solving for p, Initial residual = 0.00064978696, Final residual = 5.9397922e-06, No Iterations 34
DICPCG:  Solving for p, Initial residual = 0.00018030952, Final residual = 1.7175208e-06, No Iterations 44
[...]
time step continuity errors : sum local = 2.7914316e-10, global = 4.7432515e-11, cumulative = 5.7442945e-07
ExecutionTime = 35.89 s  ClockTime = 42 s

fieldMinMax minmaxdomain write:
    min(p) = -6.1013903 in cell 189 at location (56.614857 11.932551 0)
    max(p) = 1.7215986 in cell 1 at location (52.87257 -4.1748977 0)
    min(U) = (-0.034489217 -0.0075816516 -5.2240933e-19) in cell 87 at location (37.871504 1.0835614 0)
    max(U) = (1.2066068 3.2401383 8.4509182e-19) in cell 189 at location (56.614857 11.932551 0)

Time = 49.5

Courant Number mean: 0.097053468 max: 0.51737427
smoothSolver:  Solving for Ux, Initial residual = 9.1948545e-05, Final residual = 3.235207e-10, No Iterations 2
smoothSolver:  Solving for Uy, Initial residual = 6.5211716e-05, Final residual = 2.9977511e-10, No Iterations 2
DICPCG:  Solving for p, Initial residual = 0.00024626291, Final residual = 2.0050466e-06, No Iterations 18
DICPCG:  Solving for p, Initial residual = 3.5845062e-05, Final residual = 9.9756883e-07, No Iterations 10
DICPCG:  Solving for p, Initial residual = 4.1870508e-06, Final residual = 8.8449034e-07, No Iterations 1
DICPCG:  Solving for p, Initial residual = 1.0228915e-06, Final residual = 5.9102425e-07, No Iterations 1
time step continuity errors : sum local = 2.1642704e-10, global = 4.3094548e-11, cumulative = 5.7447254e-07
DICPCG:  Solving for p, Initial residual = 7.2443979e-06, Final residual = 9.8998156e-07, No Iterations 6
DICPCG:  Solving for p, Initial residual = 2.8993579e-06, Final residual = 7.1652622e-07, No Iterations 1
DICPCG:  Solving for p, Initial residual = 8.0842481e-07, Final residual = 8.0842481e-07, No Iterations 0
DICPCG:  Solving for p, Initial residual = 8.0842481e-07, Final residual = 8.0842481e-07, No Iterations 0
time step continuity errors : sum local = 2.9603661e-10, global = 4.5731503e-11, cumulative = 5.7451828e-07
ExecutionTime = 35.92 s  ClockTime = 42 s

fieldMinMax minmaxdomain write:
    min(p) = -6.1009627 in cell 189 at location (56.614857 11.932551 0)
    max(p) = 1.7215629 in cell 1 at location (52.87257 -4.1748977 0)
    min(U) = (-0.035448324 -0.0075917216 -5.2226708e-19) in cell 87 at location (37.871504 1.0835614 0)
    max(U) = (1.2065637 3.240059 8.4502289e-19) in cell 189 at location (56.614857 11.932551 0)

Time = 49.55

Courant Number mean: 0.097052745 max: 0.51736538
smoothSolver:  Solving for Ux, Initial residual = 9.1774008e-05, Final residual = 3.2270466e-10, No Iterations 2
smoothSolver:  Solving for Uy, Initial residual = 6.5103932e-05, Final residual = 2.9931286e-10, No Iterations 2
DICPCG:  Solving for p, Initial residual = 0.0002656104, Final residual = 2.5688218e-06, No Iterations 16
DICPCG:  Solving for p, Initial residual = 3.7245911e-05, Final residual = 9.8157276e-07, No Iterations 10
DICPCG:  Solving for p, Initial residual = 4.5497686e-06, Final residual = 9.2866709e-07, No Iterations 1
DICPCG:  Solving for p, Initial residual = 1.0850337e-06, Final residual = 6.1024831e-07, No Iterations 1
time step continuity errors : sum local = 2.2351072e-10, global = 8.3973734e-12, cumulative = 5.7452667e-07
DICPCG:  Solving for p, Initial residual = 7.340182e-06, Final residual = 9.8842651e-07, No Iterations 6
DICPCG:  Solving for p, Initial residual = 2.8991445e-06, Final residual = 7.2583732e-07, No Iterations 1
DICPCG:  Solving for p, Initial residual = 8.1664558e-07, Final residual = 8.1664558e-07, No Iterations 0
DICPCG:  Solving for p, Initial residual = 8.1664558e-07, Final residual = 8.1664558e-07, No Iterations 0
time step continuity errors : sum local = 2.9910587e-10, global = 1.1708001e-11, cumulative = 5.7453838e-07
ExecutionTime = 35.95 s  ClockTime = 42 s

fieldMinMax minmaxdomain write:
    min(p) = -6.1005363 in cell 189 at location (56.614857 11.932551 0)
    max(p) = 1.7215339 in cell 1 at location (52.87257 -4.1748977 0)
    min(U) = (-0.036409576 -0.007600193 -5.2213502e-19) in cell 87 at location (37.871504 1.0835614 0)
    max(U) = (1.2065208 3.2399801 8.4495422e-19) in cell 189 at location (56.614857 11.932551 0)

Time = 49.6

Courant Number mean: 0.09705202 max: 0.51735651
smoothSolver:  Solving for Ux, Initial residual = 9.1596678e-05, Final residual = 3.2166221e-10, No Iterations 2
smoothSolver:  Solving for Uy, Initial residual = 6.5004393e-05, Final residual = 2.9876462e-10, No Iterations 2
DICPCG:  Solving for p, Initial residual = 0.00030145395, Final residual = 2.5431518e-06, No Iterations 16
DICPCG:  Solving for p, Initial residual = 3.9557916e-05, Final residual = 8.8162956e-07, No Iterations 10
DICPCG:  Solving for p, Initial residual = 4.8059403e-06, Final residual = 9.6320688e-07, No Iterations 1
DICPCG:  Solving for p, Initial residual = 1.1397462e-06, Final residual = 5.9379123e-07, No Iterations 1
time step continuity errors : sum local = 2.1754278e-10, global = -4.2237223e-11, cumulative = 5.7449614e-07
DICPCG:  Solving for p, Initial residual = 7.3227844e-06, Final residual = 8.8956407e-07, No Iterations 8
DICPCG:  Solving for p, Initial residual = 2.9877438e-06, Final residual = 6.6897578e-07, No Iterations 1
DICPCG:  Solving for p, Initial residual = 7.7144366e-07, Final residual = 7.7144366e-07, No Iterations 0
DICPCG:  Solving for p, Initial residual = 7.7144366e-07, Final residual = 7.7144366e-07, No Iterations 0
time step continuity errors : sum local = 2.8262774e-10, global = -3.0024161e-11, cumulative = 5.7446612e-07
ExecutionTime = 35.98 s  ClockTime = 42 s

fieldMinMax minmaxdomain write:
    min(p) = -6.1001019 in cell 189 at location (56.614857 11.932551 0)
    max(p) = 1.7215138 in cell 1 at location (52.87257 -4.1748977 0)
    min(U) = (-0.037372921 -0.0076070172 -5.220139e-19) in cell 87 at location (37.871504 1.0835614 0)
    max(U) = (1.2064781 3.2399014 8.4488365e-19) in cell 189 at location (56.614857 11.932551 0)

Time = 49.65

Courant Number mean: 0.097051296 max: 0.51734766
smoothSolver:  Solving for Ux, Initial residual = 9.1418474e-05, Final residual = 3.2059595e-10, No Iterations 2
smoothSolver:  Solving for Uy, Initial residual = 6.4922404e-05, Final residual = 2.981976e-10, No Iterations 2
DICPCG:  Solving for p, Initial residual = 0.00022624358, Final residual = 2.1212892e-06, No Iterations 27
DICPCG:  Solving for p, Initial residual = 4.0357344e-05, Final residual = 9.7347503e-07, No Iterations 15
DICPCG:  Solving for p, Initial residual = 5.0684032e-06, Final residual = 9.9861303e-07, No Iterations 2
DICPCG:  Solving for p, Initial residual = 1.2201145e-06, Final residual = 6.4724152e-07, No Iterations 1
time step continuity errors : sum local = 2.3714612e-10, global = -1.0054521e-10, cumulative = 5.7436558e-07
DICPCG:  Solving for p, Initial residual = 7.6565428e-06, Final residual = 9.8126527e-07, No Iterations 13
DICPCG:  Solving for p, Initial residual = 3.409775e-06, Final residual = 7.191851e-07, No Iterations 1
DICPCG:  Solving for p, Initial residual = 8.4771979e-07, Final residual = 8.4771979e-07, No Iterations 0
DICPCG:  Solving for p, Initial residual = 8.4771979e-07, Final residual = 8.4771979e-07, No Iterations 0
time step continuity errors : sum local = 3.1060066e-10, global = -7.7272129e-11, cumulative = 5.742883e-07
ExecutionTime = 36.01 s  ClockTime = 42 s

fieldMinMax minmaxdomain write:
    min(p) = -6.0996769 in cell 189 at location (56.614857 11.932551 0)
    max(p) = 1.7214946 in cell 1 at location (52.87257 -4.1748977 0)
    min(U) = (-0.038339448 -0.0076123638 -5.2183356e-19) in cell 87 at location (37.871504 1.0835614 0)
    max(U) = (1.2064354 3.2398229 8.4481506e-19) in cell 189 at location (56.614857 11.932551 0)

Time = 49.7

Courant Number mean: 0.097050573 max: 0.51733884
smoothSolver:  Solving for Ux, Initial residual = 9.1280312e-05, Final residual = 3.1986784e-10, No Iterations 2
smoothSolver:  Solving for Uy, Initial residual = 6.4852022e-05, Final residual = 2.9767131e-10, No Iterations 2
DICPCG:  Solving for p, Initial residual = 0.00038932453, Final residual = 3.1768509e-06, No Iterations 15
DICPCG:  Solving for p, Initial residual = 4.9106089e-05, Final residual = 9.1302042e-07, No Iterations 47
DICPCG:  Solving for p, Initial residual = 8.8846799e-06, Final residual = 9.1177446e-07, No Iterations 2
DICPCG:  Solving for p, Initial residual = 1.2959428e-06, Final residual = 7.1985469e-07, No Iterations 1
time step continuity errors : sum local = 2.636923e-10, global = -2.599321e-11, cumulative = 5.7426231e-07
DICPCG:  Solving for p, Initial residual = 7.6182814e-06, Final residual = 9.6800476e-07, No Iterations 9
DICPCG:  Solving for p, Initial residual = 3.1577943e-06, Final residual = 6.4352903e-07, No Iterations 1
DICPCG:  Solving for p, Initial residual = 7.4624611e-07, Final residual = 7.4624611e-07, No Iterations 0
DICPCG:  Solving for p, Initial residual = 7.4624611e-07, Final residual = 7.4624611e-07, No Iterations 0
time step continuity errors : sum local = 2.7335975e-10, global = -1.8779208e-12, cumulative = 5.7426043e-07
ExecutionTime = 36.04 s  ClockTime = 42 s

fieldMinMax minmaxdomain write:
    min(p) = -6.0988934 in cell 189 at location (56.614857 11.932551 0)
    max(p) = 1.721848 in cell 1 at location (52.87257 -4.1748977 0)
    min(U) = (-0.0393081 -0.0076159793 -5.2190814e-19) in cell 87 at location (37.871504 1.0835614 0)
    max(U) = (1.206393 3.2397449 8.4466505e-19) in cell 189 at location (56.614857 11.932551 0)

Time = 49.75

Courant Number mean: 0.097050047 max: 0.51733009
smoothSolver:  Solving for Ux, Initial residual = 9.1148634e-05, Final residual = 3.1877324e-10, No Iterations 2
smoothSolver:  Solving for Uy, Initial residual = 6.4640449e-05, Final residual = 2.964799e-10, No Iterations 2
DICPCG:  Solving for p, Initial residual = 0.00030062056, Final residual = 2.6922889e-06, No Iterations 16
DICPCG:  Solving for p, Initial residual = 4.1808316e-05, Final residual = 9.5845076e-07, No Iterations 15
DICPCG:  Solving for p, Initial residual = 5.0681118e-06, Final residual = 8.6945926e-07, No Iterations 2
DICPCG:  Solving for p, Initial residual = 1.0957171e-06, Final residual = 7.1548724e-07, No Iterations 1
time step continuity errors : sum local = 2.620639e-10, global = 1.0042306e-10, cumulative = 5.7436085e-07
DICPCG:  Solving for p, Initial residual = 7.3930148e-06, Final residual = 9.7976594e-07, No Iterations 8
DICPCG:  Solving for p, Initial residual = 3.1089948e-06, Final residual = 7.1862018e-07, No Iterations 1
DICPCG:  Solving for p, Initial residual = 8.1937711e-07, Final residual = 8.1937711e-07, No Iterations 0
DICPCG:  Solving for p, Initial residual = 8.1937711e-07, Final residual = 8.1937711e-07, No Iterations 0
time step continuity errors : sum local = 3.001156e-10, global = 9.0304755e-11, cumulative = 5.7445116e-07
ExecutionTime = 36.07 s  ClockTime = 42 s

fieldMinMax minmaxdomain write:
    min(p) = -6.0984864 in cell 189 at location (56.614857 11.932551 0)
    max(p) = 1.7217938 in cell 1 at location (52.87257 -4.1748977 0)
    min(U) = (-0.040279207 -0.0076178806 -5.2174843e-19) in cell 87 at location (37.871504 1.0835614 0)
    max(U) = (1.2063507 3.2396671 8.4460021e-19) in cell 189 at location (56.614857 11.932551 0)

Time = 49.8

Courant Number mean: 0.097049547 max: 0.51732134
smoothSolver:  Solving for Ux, Initial residual = 9.100138e-05, Final residual = 3.179608e-10, No Iterations 2
smoothSolver:  Solving for Uy, Initial residual = 6.4492867e-05, Final residual = 2.9619759e-10, No Iterations 2
DICPCG:  Solving for p, Initial residual = 0.00053196606, Final residual = 4.7057429e-06, No Iterations 14
DICPCG:  Solving for p, Initial residual = 5.9928388e-05, Final residual = 9.4976917e-07, No Iterations 29
DICPCG:  Solving for p, Initial residual = 9.0474324e-06, Final residual = 8.1836603e-07, No Iterations 3
DICPCG:  Solving for p, Initial residual = 1.473777e-06, Final residual = 5.7723712e-07, No Iterations 1
time step continuity errors : sum local = 2.1129929e-10, global = 6.4127163e-11, cumulative = 5.7451529e-07
DICPCG:  Solving for p, Initial residual = 8.103423e-06, Final residual = 9.7680239e-07, No Iterations 11
DICPCG:  Solving for p, Initial residual = 3.3058218e-06, Final residual = 6.987596e-07, No Iterations 1
DICPCG:  Solving for p, Initial residual = 8.0935235e-07, Final residual = 8.0935235e-07, No Iterations 0
DICPCG:  Solving for p, Initial residual = 8.0935235e-07, Final residual = 8.0935235e-07, No Iterations 0
time step continuity errors : sum local = 2.9626538e-10, global = 7.5219893e-11, cumulative = 5.7459051e-07
ExecutionTime = 36.1 s  ClockTime = 42 s

fieldMinMax minmaxdomain write:
    min(p) = -6.098201 in cell 189 at location (56.614857 11.932551 0)
    max(p) = 1.7216273 in cell 1 at location (52.87257 -4.1748977 0)
    min(U) = (-0.041253122 -0.0076180104 -5.2152814e-19) in cell 87 at location (37.871504 1.0835614 0)
    max(U) = (1.2063084 3.2395895 8.4456309e-19) in cell 189 at location (56.614857 11.932551 0)

Time = 49.85

Courant Number mean: 0.097049044 max: 0.51731262
smoothSolver:  Solving for Ux, Initial residual = 9.0881466e-05, Final residual = 3.170901e-10, No Iterations 2
smoothSolver:  Solving for Uy, Initial residual = 6.4249675e-05, Final residual = 2.9566658e-10, No Iterations 2
DICPCG:  Solving for p, Initial residual = 0.00024826482, Final residual = 2.4296661e-06, No Iterations 16
DICPCG:  Solving for p, Initial residual = 3.6189842e-05, Final residual = 9.3215618e-07, No Iterations 11
DICPCG:  Solving for p, Initial residual = 4.4441692e-06, Final residual = 8.946152e-07, No Iterations 1
DICPCG:  Solving for p, Initial residual = 1.0369203e-06, Final residual = 5.4898926e-07, No Iterations 1
time step continuity errors : sum local = 2.0096752e-10, global = 1.8314346e-11, cumulative = 5.7460882e-07
DICPCG:  Solving for p, Initial residual = 7.6481604e-06, Final residual = 9.9809391e-07, No Iterations 6
DICPCG:  Solving for p, Initial residual = 2.9752644e-06, Final residual = 7.5044492e-07, No Iterations 1
DICPCG:  Solving for p, Initial residual = 8.444539e-07, Final residual = 8.444539e-07, No Iterations 0
DICPCG:  Solving for p, Initial residual = 8.444539e-07, Final residual = 8.444539e-07, No Iterations 0
time step continuity errors : sum local = 3.0912747e-10, global = 2.0434788e-11, cumulative = 5.7462926e-07
ExecutionTime = 36.13 s  ClockTime = 42 s

fieldMinMax minmaxdomain write:
    min(p) = -6.0977482 in cell 189 at location (56.614857 11.932551 0)
    max(p) = 1.7216368 in cell 1 at location (52.87257 -4.1748977 0)
    min(U) = (-0.042229369 -0.0076161746 -5.2138577e-19) in cell 87 at location (37.871504 1.0835614 0)
    max(U) = (1.2062662 3.239512 8.4448769e-19) in cell 189 at location (56.614857 11.932551 0)

Time = 49.9

Courant Number mean: 0.097048539 max: 0.51730392
smoothSolver:  Solving for Ux, Initial residual = 9.070474e-05, Final residual = 3.1651963e-10, No Iterations 2
smoothSolver:  Solving for Uy, Initial residual = 6.4130399e-05, Final residual = 2.9524008e-10, No Iterations 2
DICPCG:  Solving for p, Initial residual = 0.00023624525, Final residual = 2.1600936e-06, No Iterations 17
DICPCG:  Solving for p, Initial residual = 3.5462954e-05, Final residual = 9.9587878e-07, No Iterations 8
DICPCG:  Solving for p, Initial residual = 4.320844e-06, Final residual = 9.1625726e-07, No Iterations 1
DICPCG:  Solving for p, Initial residual = 1.0709753e-06, Final residual = 5.7151237e-07, No Iterations 1
time step continuity errors : sum local = 2.0922047e-10, global = -1.9577406e-11, cumulative = 5.7460968e-07
DICPCG:  Solving for p, Initial residual = 7.4697824e-06, Final residual = 8.8788865e-07, No Iterations 8
DICPCG:  Solving for p, Initial residual = 2.944337e-06, Final residual = 6.6060331e-07, No Iterations 1
DICPCG:  Solving for p, Initial residual = 7.4759194e-07, Final residual = 7.4759194e-07, No Iterations 0
DICPCG:  Solving for p, Initial residual = 7.4759194e-07, Final residual = 7.4759194e-07, No Iterations 0
time step continuity errors : sum local = 2.7367975e-10, global = -8.125232e-12, cumulative = 5.7460155e-07
ExecutionTime = 36.16 s  ClockTime = 42 s

fieldMinMax minmaxdomain write:
    min(p) = -6.0973219 in cell 189 at location (56.614857 11.932551 0)
    max(p) = 1.7216245 in cell 1 at location (52.87257 -4.1748977 0)
    min(U) = (-0.043207866 -0.0076122942 -5.2128362e-19) in cell 87 at location (37.871504 1.0835614 0)
    max(U) = (1.2062242 3.2394349 8.4441846e-19) in cell 189 at location (56.614857 11.932551 0)

Time = 49.95

Courant Number mean: 0.097048056 max: 0.51729526
smoothSolver:  Solving for Ux, Initial residual = 9.0563436e-05, Final residual = 3.152335e-10, No Iterations 2
smoothSolver:  Solving for Uy, Initial residual = 6.4006175e-05, Final residual = 2.9450173e-10, No Iterations 2
DICPCG:  Solving for p, Initial residual = 0.00024401376, Final residual = 2.2182372e-06, No Iterations 17
DICPCG:  Solving for p, Initial residual = 3.687635e-05, Final residual = 8.8463609e-07, No Iterations 10
DICPCG:  Solving for p, Initial residual = 4.3279988e-06, Final residual = 8.8773024e-07, No Iterations 1
DICPCG:  Solving for p, Initial residual = 1.0385339e-06, Final residual = 5.3395329e-07, No Iterations 1
time step continuity errors : sum local = 1.9547615e-10, global = -3.5467658e-11, cumulative = 5.7456609e-07
DICPCG:  Solving for p, Initial residual = 8.0902947e-06, Final residual = 9.2798405e-07, No Iterations 6
DICPCG:  Solving for p, Initial residual = 2.8848913e-06, Final residual = 7.4906563e-07, No Iterations 1
DICPCG:  Solving for p, Initial residual = 8.3240532e-07, Final residual = 8.3240532e-07, No Iterations 0
DICPCG:  Solving for p, Initial residual = 8.3240532e-07, Final residual = 8.3240532e-07, No Iterations 0
time step continuity errors : sum local = 3.0473678e-10, global = -2.9061937e-11, cumulative = 5.7453702e-07
ExecutionTime = 36.2 s  ClockTime = 42 s

fieldMinMax minmaxdomain write:
    min(p) = -6.0968789 in cell 189 at location (56.614857 11.932551 0)
    max(p) = 1.7216232 in cell 1 at location (52.87257 -4.1748977 0)
    min(U) = (-0.044188656 -0.0076063284 -5.2116881e-19) in cell 87 at location (37.871504 1.0835614 0)
    max(U) = (1.2061823 3.239358 8.4434516e-19) in cell 189 at location (56.614857 11.932551 0)

Time = 50

Courant Number mean: 0.097047571 max: 0.51728663
smoothSolver:  Solving for Ux, Initial residual = 9.0474048e-05, Final residual = 3.1447358e-10, No Iterations 2
smoothSolver:  Solving for Uy, Initial residual = 6.3881684e-05, Final residual = 2.9398058e-10, No Iterations 2
DICPCG:  Solving for p, Initial residual = 0.0002208572, Final residual = 1.9251729e-06, No Iterations 18
DICPCG:  Solving for p, Initial residual = 3.4488787e-05, Final residual = 9.0420689e-07, No Iterations 11
DICPCG:  Solving for p, Initial residual = 4.0805132e-06, Final residual = 8.6909766e-07, No Iterations 1
DICPCG:  Solving for p, Initial residual = 9.9446038e-07, Final residual = 9.9446038e-07, No Iterations 0
time step continuity errors : sum local = 3.6408901e-10, global = -4.7281372e-11, cumulative = 5.7448974e-07
DICPCG:  Solving for p, Initial residual = 7.1875951e-06, Final residual = 9.2969389e-07, No Iterations 6
DICPCG:  Solving for p, Initial residual = 2.7866765e-06, Final residual = 6.9273143e-07, No Iterations 1
DICPCG:  Solving for p, Initial residual = 7.7929661e-07, Final residual = 7.7929661e-07, No Iterations 0
DICPCG:  Solving for p, Initial residual = 7.7929661e-07, Final residual = 7.7929661e-07, No Iterations 0
time step continuity errors : sum local = 2.8531371e-10, global = -4.5524465e-11, cumulative = 5.7444422e-07
ExecutionTime = 36.24 s  ClockTime = 42 s

fieldMinMax minmaxdomain write:
    min(p) = -6.096449 in cell 189 at location (56.614857 11.932551 0)
    max(p) = 1.7216213 in cell 1 at location (52.87257 -4.1748977 0)
    min(U) = (-0.045171923 -0.0075983679 -5.2105603e-19) in cell 87 at location (37.871504 1.0835614 0)
    max(U) = (1.2061406 3.2392814 8.4427489e-19) in cell 189 at location (56.614857 11.932551 0)

End

