/*---------------------------------------------------------------------------*\
  =========                 |
  \\      /  F ield         | OpenFOAM: The Open Source CFD Toolbox
   \\    /   O peration     | Website:  https://openfoam.org
    \\  /    A nd           | Version:  7
     \\/     M anipulation  |
\*---------------------------------------------------------------------------*/
Build  : 7-7dc73e32f723
Exec   : icoFoam
Date   : Nov 08 2020
Time   : 16:22:11
Host   : "DESKTOP-VSJ4QNK"
PID    : 32415
I/O    : uncollated
Case   : /home/anoldfriend/OpenFOAM/anoldfriend-7/run/trainning/101programming/codeStream_BC/2Delbow_UparabolicInlet_timeDep
nProcs : 1
sigFpe : Enabling floating point exception trapping (FOAM_SIGFPE).
fileModificationChecking : Monitoring run-time modified files using timeStampMaster (fileModificationSkew 10)
allowSystemOperations : Allowing user-supplied system call operations

// * * * * * * * * * * * * * * * * * * * * * * * * * * * * * * * * * * * * * //
Create time

Create mesh for time = 0

Reading transportProperties

Reading field p

Reading field U

Using dynamicCode for patch velocity-inlet-5 on field U at line 39 in "/home/anoldfriend/OpenFOAM/anoldfriend-7/run/trainning/101programming/codeStream_BC/2Delbow_UparabolicInlet_timeDep/0/U.boundaryField.velocity-inlet-5"
Creating new library in "dynamicCode/parabolicProfile/platforms/linux64GccDPInt32Debug/lib/libparabolicProfile_2ed2e8a0b663c4fadef055cbc25d8062a33c90ee.so"
Invoking "wmake -s libso /home/anoldfriend/OpenFOAM/anoldfriend-7/run/trainning/101programming/codeStream_BC/2Delbow_UparabolicInlet_timeDep/dynamicCode/parabolicProfile"
wmake libso /home/anoldfriend/OpenFOAM/anoldfriend-7/run/trainning/101programming/codeStream_BC/2Delbow_UparabolicInlet_timeDep/dynamicCode/parabolicProfile
    wmkdep: fixedValueFvPatchFieldTemplate.C
    Ctoo: fixedValueFvPatchFieldTemplate.C
    ld: /home/anoldfriend/OpenFOAM/anoldfriend-7/run/trainning/101programming/codeStream_BC/2Delbow_UparabolicInlet_timeDep/dynamicCode/parabolicProfile/../platforms/linux64GccDPInt32Debug/lib/libparabolicProfile_2ed2e8a0b663c4fadef055cbc25d8062a33c90ee.so
Reading/calculating face flux field phi


Starting time loop

Time = 0.05

Courant Number mean: 0.00017826052 max: 0.17320508
smoothSolver:  Solving for Ux, Initial residual = 1, Final residual = 2.5818638e-13, No Iterations 2
smoothSolver:  Solving for Uy, Initial residual = 1, Final residual = 1.9476307e-11, No Iterations 2
DICPCG:  Solving for p, Initial residual = 1, Final residual = 0.0091822011, No Iterations 66
DICPCG:  Solving for p, Initial residual = 0.09592253, Final residual = 0.00067381727, No Iterations 58
DICPCG:  Solving for p, Initial residual = 0.009872256, Final residual = 8.5191064e-05, No Iterations 56
DICPCG:  Solving for p, Initial residual = 0.0013539542, Final residual = 1.232888e-05, No Iterations 53
time step continuity errors : sum local = 8.2187845e-07, global = 3.9881101e-08, cumulative = 3.9881101e-08
DICPCG:  Solving for p, Initial residual = 0.0002716523, Final residual = 2.5886816e-06, No Iterations 61
DICPCG:  Solving for p, Initial residual = 0.0001762447, Final residual = 1.636597e-06, No Iterations 24
DICPCG:  Solving for p, Initial residual = 1.7872578e-05, Final residual = 8.3196561e-07, No Iterations 12
DICPCG:  Solving for p, Initial residual = 3.0129623e-06, Final residual = 7.8555464e-07, No Iterations 1
time step continuity errors : sum local = 5.2305494e-08, global = -1.7468184e-08, cumulative = 2.2412917e-08
ExecutionTime = 0.16 s  ClockTime = 6 s

fieldMinMax minmaxdomain write:
    min(p) = 0 in cell 2 at location (49 64 0)
    max(p) = 1732.2392 in cell 1 at location (52.87257 -4.1748977 0)
    min(U) = (-1.0174927 -0.82734463 -9.3536749e-16) in cell 20 at location (51.900857 7.3611775 0)
    max(U) = (0.79879748 1.0252585 6.8682423e-16) in cell 269 at location (57.129239 12.605202 0)

Time = 0.1

Courant Number mean: 0.034290868 max: 0.44174253
smoothSolver:  Solving for Ux, Initial residual = 0.35062255, Final residual = 8.3661634e-09, No Iterations 3
smoothSolver:  Solving for Uy, Initial residual = 0.3842651, Final residual = 5.6254847e-09, No Iterations 4
DICPCG:  Solving for p, Initial residual = 0.018646864, Final residual = 0.0001709772, No Iterations 64
DICPCG:  Solving for p, Initial residual = 0.51340824, Final residual = 0.0050969521, No Iterations 57
DICPCG:  Solving for p, Initial residual = 0.12307965, Final residual = 0.00097123919, No Iterations 57
DICPCG:  Solving for p, Initial residual = 0.017059354, Final residual = 0.00014900727, No Iterations 54
time step continuity errors : sum local = 8.0586535e-07, global = 1.5998067e-08, cumulative = 3.8410983e-08
DICPCG:  Solving for p, Initial residual = 0.074687338, Final residual = 0.00070306488, No Iterations 63
DICPCG:  Solving for p, Initial residual = 0.14882529, Final residual = 0.0014412253, No Iterations 45
DICPCG:  Solving for p, Initial residual = 0.017152805, Final residual = 0.00016061232, No Iterations 31
DICPCG:  Solving for p, Initial residual = 0.0025727397, Final residual = 6.2404089e-07, No Iterations 66
time step continuity errors : sum local = 4.2638615e-09, global = -4.0590613e-11, cumulative = 3.8370393e-08
ExecutionTime = 0.21 s  ClockTime = 6 s

fieldMinMax minmaxdomain write:
    min(p) = 0 in cell 2 at location (49 64 0)
    max(p) = 135.23466 in cell 8 at location (0.57735027 9 0)
    min(U) = (-0.97328512 -0.73112906 -5.8217922e-17) in cell 20 at location (51.900857 7.3611775 0)
    max(U) = (0.11770468 0.040539732 5.1077289e-16) in cell 98 at location (2.5773503 1 0)

Time = 0.15

Courant Number mean: 0.037253493 max: 0.43000241
smoothSolver:  Solving for Ux, Initial residual = 0.14543711, Final residual = 5.7989681e-10, No Iterations 4
smoothSolver:  Solving for Uy, Initial residual = 0.041402549, Final residual = 3.7782821e-09, No Iterations 3
DICPCG:  Solving for p, Initial residual = 0.053553726, Final residual = 0.00048447514, No Iterations 62
DICPCG:  Solving for p, Initial residual = 0.33920533, Final residual = 0.0023715167, No Iterations 47
DICPCG:  Solving for p, Initial residual = 0.047539865, Final residual = 0.00035273778, No Iterations 57
DICPCG:  Solving for p, Initial residual = 0.0065174741, Final residual = 6.1815955e-05, No Iterations 46
time step continuity errors : sum local = 8.7889903e-08, global = -3.6682145e-09, cumulative = 3.4702178e-08
DICPCG:  Solving for p, Initial residual = 0.038511579, Final residual = 0.00030900099, No Iterations 65
DICPCG:  Solving for p, Initial residual = 0.094302228, Final residual = 0.00066302806, No Iterations 47
DICPCG:  Solving for p, Initial residual = 0.0098416732, Final residual = 8.3866352e-05, No Iterations 57
DICPCG:  Solving for p, Initial residual = 0.0014133829, Final residual = 5.9038105e-07, No Iterations 65
time step continuity errors : sum local = 3.8646096e-09, global = 1.9164898e-11, cumulative = 3.4721343e-08
ExecutionTime = 0.27 s  ClockTime = 6 s

fieldMinMax minmaxdomain write:
    min(p) = 0 in cell 2 at location (49 64 0)
    max(p) = 135.64913 in cell 8 at location (0.57735027 9 0)
    min(U) = (-0.88527465 -0.63460518 -5.957353e-17) in cell 20 at location (51.900857 7.3611775 0)
    max(U) = (0.17460188 0.059069675 5.1070744e-16) in cell 98 at location (2.5773503 1 0)

Time = 0.2

Courant Number mean: 0.040317502 max: 0.42853892
smoothSolver:  Solving for Ux, Initial residual = 0.12453694, Final residual = 4.2949931e-10, No Iterations 4
smoothSolver:  Solving for Uy, Initial residual = 0.038889713, Final residual = 2.7190523e-09, No Iterations 3
DICPCG:  Solving for p, Initial residual = 0.021537091, Final residual = 0.00019707235, No Iterations 63
DICPCG:  Solving for p, Initial residual = 0.34676694, Final residual = 0.002513582, No Iterations 47
DICPCG:  Solving for p, Initial residual = 0.048777272, Final residual = 0.00042030152, No Iterations 56
DICPCG:  Solving for p, Initial residual = 0.0070451017, Final residual = 5.9802576e-05, No Iterations 49
time step continuity errors : sum local = 7.9317433e-08, global = 1.5431735e-09, cumulative = 3.6264517e-08
DICPCG:  Solving for p, Initial residual = 0.034620331, Final residual = 0.00031900575, No Iterations 65
DICPCG:  Solving for p, Initial residual = 0.094989334, Final residual = 0.00066958002, No Iterations 47
DICPCG:  Solving for p, Initial residual = 0.0099130126, Final residual = 8.1533462e-05, No Iterations 57
DICPCG:  Solving for p, Initial residual = 0.001425726, Final residual = 5.9257829e-07, No Iterations 65
time step continuity errors : sum local = 3.8290583e-09, global = 2.0759278e-11, cumulative = 3.6285276e-08
ExecutionTime = 0.33 s  ClockTime = 6 s

fieldMinMax minmaxdomain write:
    min(p) = 0 in cell 2 at location (49 64 0)
    max(p) = 135.56677 in cell 8 at location (0.57735027 9 0)
    min(U) = (-0.77891011 -0.53911401 -6.1236931e-17) in cell 20 at location (51.900857 7.3611775 0)
    max(U) = (0.22974748 0.076096398 5.0880663e-16) in cell 98 at location (2.5773503 1 0)

Time = 0.25

Courant Number mean: 0.043401734 max: 0.42557208
smoothSolver:  Solving for Ux, Initial residual = 0.10850907, Final residual = 8.6921446e-09, No Iterations 3
smoothSolver:  Solving for Uy, Initial residual = 0.036716103, Final residual = 2.0672989e-09, No Iterations 3
DICPCG:  Solving for p, Initial residual = 0.016655074, Final residual = 0.00010621756, No Iterations 64
DICPCG:  Solving for p, Initial residual = 0.35236068, Final residual = 0.0025618491, No Iterations 47
DICPCG:  Solving for p, Initial residual = 0.049852301, Final residual = 0.00042954173, No Iterations 55
DICPCG:  Solving for p, Initial residual = 0.0072052584, Final residual = 6.44083e-05, No Iterations 48
time step continuity errors : sum local = 8.3138211e-08, global = 5.6044574e-10, cumulative = 3.6845722e-08
DICPCG:  Solving for p, Initial residual = 0.03514265, Final residual = 0.00032114279, No Iterations 65
DICPCG:  Solving for p, Initial residual = 0.095416721, Final residual = 0.00067165826, No Iterations 47
DICPCG:  Solving for p, Initial residual = 0.0099653932, Final residual = 8.0763451e-05, No Iterations 57
DICPCG:  Solving for p, Initial residual = 0.0014321121, Final residual = 5.9300332e-07, No Iterations 65
time step continuity errors : sum local = 3.7860017e-09, global = 2.0287337e-11, cumulative = 3.6866009e-08
ExecutionTime = 0.39 s  ClockTime = 6 s

fieldMinMax minmaxdomain write:
    min(p) = 0 in cell 2 at location (49 64 0)
    max(p) = 135.00314 in cell 8 at location (0.57735027 9 0)
    min(U) = (-0.64906119 -0.45020863 -6.2700283e-17) in cell 20 at location (51.900857 7.3611775 0)
    max(U) = (0.28339599 0.091569242 5.05208e-16) in cell 98 at location (2.5773503 1 0)

Time = 0.3

Courant Number mean: 0.046477107 max: 0.4205928
smoothSolver:  Solving for Ux, Initial residual = 0.095405877, Final residual = 5.4692056e-09, No Iterations 3
smoothSolver:  Solving for Uy, Initial residual = 0.034699696, Final residual = 1.6987216e-09, No Iterations 3
DICPCG:  Solving for p, Initial residual = 0.015069835, Final residual = 0.00010473467, No Iterations 64
DICPCG:  Solving for p, Initial residual = 0.35355669, Final residual = 0.0025527278, No Iterations 47
DICPCG:  Solving for p, Initial residual = 0.049960518, Final residual = 0.00041241732, No Iterations 55
DICPCG:  Solving for p, Initial residual = 0.0072020813, Final residual = 6.4719862e-05, No Iterations 48
time step continuity errors : sum local = 8.2703508e-08, global = -2.5391461e-13, cumulative = 3.6865755e-08
DICPCG:  Solving for p, Initial residual = 0.035571041, Final residual = 0.00032243314, No Iterations 65
DICPCG:  Solving for p, Initial residual = 0.095513851, Final residual = 0.00067088621, No Iterations 47
DICPCG:  Solving for p, Initial residual = 0.0099798266, Final residual = 8.0110751e-05, No Iterations 57
DICPCG:  Solving for p, Initial residual = 0.0014337121, Final residual = 5.914824e-07, No Iterations 65
time step continuity errors : sum local = 3.7352686e-09, global = 1.9958259e-11, cumulative = 3.6885713e-08
ExecutionTime = 0.45 s  ClockTime = 6 s

fieldMinMax minmaxdomain write:
    min(p) = 0 in cell 2 at location (49 64 0)
    max(p) = 134.09849 in cell 8 at location (0.57735027 9 0)
    min(U) = (-0.4852015 -0.3683047 -6.399329e-17) in cell 20 at location (51.900857 7.3611775 0)
    max(U) = (0.33560927 0.10536005 5.0039214e-16) in cell 98 at location (2.5773503 1 0)

Time = 0.35

Courant Number mean: 0.049547103 max: 0.41412722
smoothSolver:  Solving for Ux, Initial residual = 0.084588014, Final residual = 2.8570512e-09, No Iterations 3
smoothSolver:  Solving for Uy, Initial residual = 0.032832176, Final residual = 1.4651772e-09, No Iterations 3
DICPCG:  Solving for p, Initial residual = 0.014483528, Final residual = 0.00010320066, No Iterations 64
DICPCG:  Solving for p, Initial residual = 0.35251626, Final residual = 0.00251995, No Iterations 47
DICPCG:  Solving for p, Initial residual = 0.049638374, Final residual = 0.00041483839, No Iterations 55
DICPCG:  Solving for p, Initial residual = 0.0071518703, Final residual = 6.3909448e-05, No Iterations 48
time step continuity errors : sum local = 8.1301772e-08, global = 1.6559198e-10, cumulative = 3.7051305e-08
DICPCG:  Solving for p, Initial residual = 0.035883497, Final residual = 0.00032092645, No Iterations 65
DICPCG:  Solving for p, Initial residual = 0.095526409, Final residual = 0.00066980539, No Iterations 47
DICPCG:  Solving for p, Initial residual = 0.009987288, Final residual = 7.9379441e-05, No Iterations 57
DICPCG:  Solving for p, Initial residual = 0.001434344, Final residual = 5.8939718e-07, No Iterations 65
time step continuity errors : sum local = 3.6745048e-09, global = 1.9752751e-11, cumulative = 3.7071058e-08
ExecutionTime = 0.5 s  ClockTime = 6 s

fieldMinMax minmaxdomain write:
    min(p) = 0 in cell 2 at location (49 64 0)
    max(p) = 132.79187 in cell 8 at location (0.57735027 9 0)
    min(U) = (-0.28365835 -0.30453994 -6.4870146e-17) in cell 20 at location (51.900857 7.3611775 0)
    max(U) = (0.38641779 0.11734196 4.9414159e-16) in cell 98 at location (2.5773503 1 0)

Time = 0.4

Courant Number mean: 0.052604076 max: 0.40680512
smoothSolver:  Solving for Ux, Initial residual = 0.07557319, Final residual = 1.8962698e-09, No Iterations 3
smoothSolver:  Solving for Uy, Initial residual = 0.031105503, Final residual = 1.2708787e-09, No Iterations 3
DICPCG:  Solving for p, Initial residual = 0.014797191, Final residual = 0.00010659335, No Iterations 64
DICPCG:  Solving for p, Initial residual = 0.35278912, Final residual = 0.0025245621, No Iterations 47
DICPCG:  Solving for p, Initial residual = 0.049518363, Final residual = 0.00048539711, No Iterations 55
DICPCG:  Solving for p, Initial residual = 0.0071810476, Final residual = 5.9062832e-05, No Iterations 49
time step continuity errors : sum local = 7.4329072e-08, global = 2.3652576e-09, cumulative = 3.9436316e-08
DICPCG:  Solving for p, Initial residual = 0.036414538, Final residual = 0.00032152034, No Iterations 65
DICPCG:  Solving for p, Initial residual = 0.095675751, Final residual = 0.00067084818, No Iterations 47
DICPCG:  Solving for p, Initial residual = 0.010009347, Final residual = 7.8469301e-05, No Iterations 57
DICPCG:  Solving for p, Initial residual = 0.0014378471, Final residual = 5.8757774e-07, No Iterations 65
time step continuity errors : sum local = 3.6003607e-09, global = 1.9313265e-11, cumulative = 3.9455629e-08
ExecutionTime = 0.56 s  ClockTime = 6 s

fieldMinMax minmaxdomain write:
    min(p) = 0 in cell 2 at location (49 64 0)
    max(p) = 131.02794 in cell 8 at location (0.57735027 9 0)
    min(U) = (-0.32881401 -0.29329303 -9.0766384e-17) in cell 471 at location (50.761792 7.9448173 0)
    max(U) = (0.43581823 0.12739727 4.8624786e-16) in cell 98 at location (2.5773503 1 0)

Time = 0.45

Courant Number mean: 0.055633457 max: 0.3984613
smoothSolver:  Solving for Ux, Initial residual = 0.067953329, Final residual = 1.5202502e-09, No Iterations 3
smoothSolver:  Solving for Uy, Initial residual = 0.029438842, Final residual = 1.1104033e-09, No Iterations 3
DICPCG:  Solving for p, Initial residual = 0.014419076, Final residual = 0.00010336569, No Iterations 64
DICPCG:  Solving for p, Initial residual = 0.35423274, Final residual = 0.0025206827, No Iterations 47
DICPCG:  Solving for p, Initial residual = 0.049560509, Final residual = 0.00048441244, No Iterations 55
DICPCG:  Solving for p, Initial residual = 0.0071821567, Final residual = 5.914441e-05, No Iterations 49
time step continuity errors : sum local = 7.3194277e-08, global = 2.3034226e-09, cumulative = 4.1759052e-08
DICPCG:  Solving for p, Initial residual = 0.037145965, Final residual = 0.00032334469, No Iterations 65
DICPCG:  Solving for p, Initial residual = 0.095910729, Final residual = 0.00067214696, No Iterations 47
DICPCG:  Solving for p, Initial residual = 0.010040821, Final residual = 7.7651642e-05, No Iterations 57
DICPCG:  Solving for p, Initial residual = 0.0014422642, Final residual = 5.8672052e-07, No Iterations 65
time step continuity errors : sum local = 3.5204777e-09, global = 1.8911358e-11, cumulative = 4.1777963e-08
ExecutionTime = 0.62 s  ClockTime = 6 s

fieldMinMax minmaxdomain write:
    min(p) = 0 in cell 2 at location (49 64 0)
    max(p) = 128.95853 in cell 8 at location (0.57735027 9 0)
    min(U) = (-0.2807308 -0.31899953 -8.9363024e-17) in cell 471 at location (50.761792 7.9448173 0)
    max(U) = (0.48377571 0.13542523 4.7730959e-16) in cell 98 at location (2.5773503 1 0)

Time = 0.5

Courant Number mean: 0.058626112 max: 0.38948209
smoothSolver:  Solving for Ux, Initial residual = 0.061484076, Final residual = 1.7878802e-09, No Iterations 3
smoothSolver:  Solving for Uy, Initial residual = 0.027892867, Final residual = 9.3210832e-10, No Iterations 3
DICPCG:  Solving for p, Initial residual = 0.014340815, Final residual = 0.00010223202, No Iterations 64
DICPCG:  Solving for p, Initial residual = 0.35576836, Final residual = 0.0025231138, No Iterations 47
DICPCG:  Solving for p, Initial residual = 0.049720034, Final residual = 0.00046093985, No Iterations 55
DICPCG:  Solving for p, Initial residual = 0.0071844005, Final residual = 7.0273409e-05, No Iterations 48
time step continuity errors : sum local = 8.5177389e-08, global = 1.7519929e-09, cumulative = 4.3529956e-08
DICPCG:  Solving for p, Initial residual = 0.03784573, Final residual = 0.00032424093, No Iterations 65
DICPCG:  Solving for p, Initial residual = 0.096104042, Final residual = 0.0006726908, No Iterations 47
DICPCG:  Solving for p, Initial residual = 0.010065406, Final residual = 7.694832e-05, No Iterations 57
DICPCG:  Solving for p, Initial residual = 0.0014455819, Final residual = 5.8640028e-07, No Iterations 65
time step continuity errors : sum local = 3.4371548e-09, global = 1.8509201e-11, cumulative = 4.3548465e-08
ExecutionTime = 0.67 s  ClockTime = 6 s

fieldMinMax minmaxdomain write:
    min(p) = 0 in cell 2 at location (49 64 0)
    max(p) = 126.62346 in cell 8 at location (0.57735027 9 0)
    min(U) = (-0.23053043 -0.34034581 -8.7753026e-17) in cell 471 at location (50.761792 7.9448173 0)
    max(U) = (0.53022915 0.1413487 4.6748714e-16) in cell 98 at location (2.5773503 1 0)

Time = 0.55

Courant Number mean: 0.061553242 max: 0.38036374
smoothSolver:  Solving for Ux, Initial residual = 0.055976277, Final residual = 1.8475831e-09, No Iterations 3
smoothSolver:  Solving for Uy, Initial residual = 0.026392121, Final residual = 7.9104564e-10, No Iterations 3
DICPCG:  Solving for p, Initial residual = 0.013472595, Final residual = 0.00010305792, No Iterations 64
DICPCG:  Solving for p, Initial residual = 0.35462733, Final residual = 0.0025148723, No Iterations 47
DICPCG:  Solving for p, Initial residual = 0.049401158, Final residual = 0.00048407832, No Iterations 55
DICPCG:  Solving for p, Initial residual = 0.0071506967, Final residual = 5.934355e-05, No Iterations 49
time step continuity errors : sum local = 7.0880321e-08, global = 2.2112218e-09, cumulative = 4.5759687e-08
DICPCG:  Solving for p, Initial residual = 0.038186436, Final residual = 0.00032405045, No Iterations 65
DICPCG:  Solving for p, Initial residual = 0.096118017, Final residual = 0.00096013571, No Iterations 46
DICPCG:  Solving for p, Initial residual = 0.010089577, Final residual = 9.4757769e-05, No Iterations 56
DICPCG:  Solving for p, Initial residual = 0.0014983247, Final residual = 5.8235862e-07, No Iterations 65
time step continuity errors : sum local = 3.3298494e-09, global = -6.3170654e-12, cumulative = 4.575337e-08
ExecutionTime = 0.73 s  ClockTime = 7 s

fieldMinMax minmaxdomain write:
    min(p) = 0 in cell 2 at location (49 64 0)
    max(p) = 123.88139 in cell 8 at location (0.57735027 9 0)
    min(U) = (-0.18221701 -0.35381592 -8.6047176e-17) in cell 471 at location (50.761792 7.9448173 0)
    max(U) = (0.57509299 0.14511787 4.5624266e-16) in cell 98 at location (2.5773503 1 0)

Time = 0.6

Courant Number mean: 0.064407223 max: 0.37121884
smoothSolver:  Solving for Ux, Initial residual = 0.051039199, Final residual = 1.9580143e-09, No Iterations 3
smoothSolver:  Solving for Uy, Initial residual = 0.024937392, Final residual = 6.7685213e-10, No Iterations 3
DICPCG:  Solving for p, Initial residual = 0.013516046, Final residual = 0.00010339234, No Iterations 64
DICPCG:  Solving for p, Initial residual = 0.35187878, Final residual = 0.0024937905, No Iterations 47
DICPCG:  Solving for p, Initial residual = 0.048735307, Final residual = 0.00042179509, No Iterations 56
DICPCG:  Solving for p, Initial residual = 0.0070219026, Final residual = 6.140433e-05, No Iterations 49
time step continuity errors : sum local = 7.2582478e-08, global = 1.5300858e-09, cumulative = 4.7283456e-08
DICPCG:  Solving for p, Initial residual = 0.038206822, Final residual = 0.00032034576, No Iterations 65
DICPCG:  Solving for p, Initial residual = 0.096049117, Final residual = 0.00095833398, No Iterations 46
DICPCG:  Solving for p, Initial residual = 0.010088196, Final residual = 9.4146648e-05, No Iterations 56
DICPCG:  Solving for p, Initial residual = 0.0014984128, Final residual = 5.8015066e-07, No Iterations 65
time step continuity errors : sum local = 3.2277193e-09, global = -6.505421e-12, cumulative = 4.727695e-08
ExecutionTime = 0.79 s  ClockTime = 7 s

fieldMinMax minmaxdomain write:
    min(p) = 0 in cell 2 at location (49 64 0)
    max(p) = 120.75452 in cell 8 at location (0.57735027 9 0)
    min(U) = (-0.13334481 -0.3587568 -8.4019747e-17) in cell 471 at location (50.761792 7.9448173 0)
    max(U) = (0.61826242 0.14671255 4.4367185e-16) in cell 98 at location (2.5773503 1 0)

Time = 0.65

Courant Number mean: 0.067180556 max: 0.3690596
smoothSolver:  Solving for Ux, Initial residual = 0.046652635, Final residual = 1.9273459e-09, No Iterations 3
smoothSolver:  Solving for Uy, Initial residual = 0.023516961, Final residual = 5.6740881e-10, No Iterations 3
DICPCG:  Solving for p, Initial residual = 0.013204147, Final residual = 0.00010492322, No Iterations 64
DICPCG:  Solving for p, Initial residual = 0.34859282, Final residual = 0.0024681203, No Iterations 47
DICPCG:  Solving for p, Initial residual = 0.047996283, Final residual = 0.00039136801, No Iterations 56
DICPCG:  Solving for p, Initial residual = 0.0068957067, Final residual = 5.6512924e-05, No Iterations 49
time step continuity errors : sum local = 6.6033036e-08, global = 1.5030828e-09, cumulative = 4.8780033e-08
DICPCG:  Solving for p, Initial residual = 0.03815085, Final residual = 0.00031654688, No Iterations 65
DICPCG:  Solving for p, Initial residual = 0.095910507, Final residual = 0.00095583768, No Iterations 46
DICPCG:  Solving for p, Initial residual = 0.010080541, Final residual = 9.301777e-05, No Iterations 56
DICPCG:  Solving for p, Initial residual = 0.0014970468, Final residual = 5.7654339e-07, No Iterations 65
time step continuity errors : sum local = 3.1118505e-09, global = -6.9485856e-12, cumulative = 4.8773084e-08
ExecutionTime = 0.85 s  ClockTime = 7 s

fieldMinMax minmaxdomain write:
    min(p) = 0 in cell 2 at location (49 64 0)
    max(p) = 117.28617 in cell 8 at location (0.57735027 9 0)
    min(U) = (-0.08415306 -0.35540428 -8.1881575e-17) in cell 471 at location (50.761792 7.9448173 0)
    max(U) = (0.65961559 0.14614358 4.2994795e-16) in cell 98 at location (2.5773503 1 0)

Time = 0.7

Courant Number mean: 0.069861027 max: 0.37099648
smoothSolver:  Solving for Ux, Initial residual = 0.042722638, Final residual = 1.7095967e-09, No Iterations 3
smoothSolver:  Solving for Uy, Initial residual = 0.022162283, Final residual = 5.4046136e-10, No Iterations 3
DICPCG:  Solving for p, Initial residual = 0.013024448, Final residual = 0.00010432611, No Iterations 64
DICPCG:  Solving for p, Initial residual = 0.34405581, Final residual = 0.0024306082, No Iterations 47
DICPCG:  Solving for p, Initial residual = 0.047104271, Final residual = 0.00044053642, No Iterations 55
DICPCG:  Solving for p, Initial residual = 0.006785394, Final residual = 6.7614656e-05, No Iterations 48
time step continuity errors : sum local = 7.8079159e-08, global = 1.6789282e-09, cumulative = 5.0452013e-08
DICPCG:  Solving for p, Initial residual = 0.037875484, Final residual = 0.00031083061, No Iterations 65
DICPCG:  Solving for p, Initial residual = 0.095637656, Final residual = 0.00095194033, No Iterations 46
DICPCG:  Solving for p, Initial residual = 0.010055359, Final residual = 9.1925121e-05, No Iterations 56
DICPCG:  Solving for p, Initial residual = 0.0014930827, Final residual = 5.725967e-07, No Iterations 65
time step continuity errors : sum local = 2.9920077e-09, global = -7.1892678e-12, cumulative = 5.0444823e-08
ExecutionTime = 0.9 s  ClockTime = 7 s

fieldMinMax minmaxdomain write:
    min(p) = 0 in cell 2 at location (49 64 0)
    max(p) = 113.50527 in cell 8 at location (0.57735027 9 0)
    min(U) = (-0.031719864 -0.34440961 -7.9463689e-17) in cell 471 at location (50.761792 7.9448173 0)
    max(U) = (1.0229094 0.2145893 1.5765834e-16) in cell 351 at location (34.280215 13.377712 0)

Time = 0.75

Courant Number mean: 0.072443851 max: 0.372814
smoothSolver:  Solving for Ux, Initial residual = 0.039222125, Final residual = 1.4859399e-09, No Iterations 3
smoothSolver:  Solving for Uy, Initial residual = 0.020847389, Final residual = 4.677524e-10, No Iterations 3
DICPCG:  Solving for p, Initial residual = 0.012829569, Final residual = 0.00010448058, No Iterations 64
DICPCG:  Solving for p, Initial residual = 0.33916497, Final residual = 0.0033889382, No Iterations 46
DICPCG:  Solving for p, Initial residual = 0.046193508, Final residual = 0.00036218791, No Iterations 56
DICPCG:  Solving for p, Initial residual = 0.0068416541, Final residual = 6.8387422e-05, No Iterations 48
time step continuity errors : sum local = 7.7838109e-08, global = 2.180374e-10, cumulative = 5.0662861e-08
DICPCG:  Solving for p, Initial residual = 0.037504159, Final residual = 0.00030459511, No Iterations 65
DICPCG:  Solving for p, Initial residual = 0.095303886, Final residual = 0.00094757436, No Iterations 46
DICPCG:  Solving for p, Initial residual = 0.010023338, Final residual = 9.1111561e-05, No Iterations 56
DICPCG:  Solving for p, Initial residual = 0.0014885069, Final residual = 5.6925294e-07, No Iterations 65
time step continuity errors : sum local = 2.8694782e-09, global = -7.1626657e-12, cumulative = 5.0655698e-08
ExecutionTime = 0.96 s  ClockTime = 7 s

fieldMinMax minmaxdomain write:
    min(p) = 0 in cell 2 at location (49 64 0)
    max(p) = 109.35692 in cell 8 at location (0.57735027 9 0)
    min(U) = (0.015195896 -0.32810292 -7.6709963e-17) in cell 471 at location (50.761792 7.9448173 0)
    max(U) = (1.0788603 0.22966264 1.5146815e-16) in cell 351 at location (34.280215 13.377712 0)

Time = 0.8

Courant Number mean: 0.074921238 max: 0.37449502
smoothSolver:  Solving for Ux, Initial residual = 0.03602299, Final residual = 1.2879821e-09, No Iterations 3
smoothSolver:  Solving for Uy, Initial residual = 0.019560148, Final residual = 4.3994711e-10, No Iterations 3
DICPCG:  Solving for p, Initial residual = 0.012652742, Final residual = 0.00010373691, No Iterations 64
DICPCG:  Solving for p, Initial residual = 0.33341772, Final residual = 0.0033251076, No Iterations 46
DICPCG:  Solving for p, Initial residual = 0.045075314, Final residual = 0.00037273885, No Iterations 56
DICPCG:  Solving for p, Initial residual = 0.0066824637, Final residual = 6.1756783e-05, No Iterations 49
time step continuity errors : sum local = 6.9248859e-08, global = 8.5327711e-10, cumulative = 5.1508975e-08
DICPCG:  Solving for p, Initial residual = 0.036977536, Final residual = 0.00029793709, No Iterations 65
DICPCG:  Solving for p, Initial residual = 0.094859013, Final residual = 0.0009420094, No Iterations 46
DICPCG:  Solving for p, Initial residual = 0.0099813021, Final residual = 9.0267197e-05, No Iterations 56
DICPCG:  Solving for p, Initial residual = 0.0014823261, Final residual = 5.6552802e-07, No Iterations 65
time step continuity errors : sum local = 2.7403069e-09, global = -7.0719851e-12, cumulative = 5.1501903e-08
ExecutionTime = 1.02 s  ClockTime = 7 s

fieldMinMax minmaxdomain write:
    min(p) = 0 in cell 2 at location (49 64 0)
    max(p) = 104.89699 in cell 8 at location (0.57735027 9 0)
    min(U) = (0.062769885 -0.30572481 -7.356495e-17) in cell 471 at location (50.761792 7.9448173 0)
    max(U) = (1.1321851 0.24459276 1.4489829e-16) in cell 351 at location (34.280215 13.377712 0)

Time = 0.85

Courant Number mean: 0.077284933 max: 0.37599199
smoothSolver:  Solving for Ux, Initial residual = 0.033110995, Final residual = 1.12555e-09, No Iterations 3
smoothSolver:  Solving for Uy, Initial residual = 0.018305091, Final residual = 4.523226e-10, No Iterations 3
DICPCG:  Solving for p, Initial residual = 0.012525868, Final residual = 0.00010249169, No Iterations 64
DICPCG:  Solving for p, Initial residual = 0.32656889, Final residual = 0.0032518276, No Iterations 46
DICPCG:  Solving for p, Initial residual = 0.043803314, Final residual = 0.00035090456, No Iterations 56
DICPCG:  Solving for p, Initial residual = 0.0064877427, Final residual = 5.8349137e-05, No Iterations 49
time step continuity errors : sum local = 6.4413787e-08, global = 8.5792521e-10, cumulative = 5.2359828e-08
DICPCG:  Solving for p, Initial residual = 0.036306373, Final residual = 0.00028973974, No Iterations 65
DICPCG:  Solving for p, Initial residual = 0.094278784, Final residual = 0.00093508911, No Iterations 46
DICPCG:  Solving for p, Initial residual = 0.0099238946, Final residual = 8.9274581e-05, No Iterations 56
DICPCG:  Solving for p, Initial residual = 0.0014736924, Final residual = 5.6097232e-07, No Iterations 65
time step continuity errors : sum local = 2.6042092e-09, global = -6.9104391e-12, cumulative = 5.2352918e-08
ExecutionTime = 1.08 s  ClockTime = 7 s

fieldMinMax minmaxdomain write:
    min(p) = 0 in cell 2 at location (49 64 0)
    max(p) = 100.13164 in cell 8 at location (0.57735027 9 0)
    min(U) = (0.11237111 -0.27776047 -7.022108e-17) in cell 471 at location (50.761792 7.9448173 0)
    max(U) = (1.1827702 0.25926488 1.3795682e-16) in cell 351 at location (34.280215 13.377712 0)

Time = 0.9

Courant Number mean: 0.079533027 max: 0.37731163
smoothSolver:  Solving for Ux, Initial residual = 0.030421171, Final residual = 1.1951882e-09, No Iterations 3
smoothSolver:  Solving for Uy, Initial residual = 0.017078291, Final residual = 4.8057754e-10, No Iterations 3
DICPCG:  Solving for p, Initial residual = 0.012803852, Final residual = 0.00010374265, No Iterations 64
DICPCG:  Solving for p, Initial residual = 0.32023759, Final residual = 0.0031861063, No Iterations 46
DICPCG:  Solving for p, Initial residual = 0.042595764, Final residual = 0.00035930129, No Iterations 56
DICPCG:  Solving for p, Initial residual = 0.0063288153, Final residual = 5.9558811e-05, No Iterations 49
time step continuity errors : sum local = 6.4383044e-08, global = 7.7853499e-10, cumulative = 5.3131453e-08
DICPCG:  Solving for p, Initial residual = 0.0356498, Final residual = 0.00028175079, No Iterations 65
DICPCG:  Solving for p, Initial residual = 0.093712123, Final residual = 0.00092834736, No Iterations 46
DICPCG:  Solving for p, Initial residual = 0.0098709292, Final residual = 8.8550936e-05, No Iterations 56
DICPCG:  Solving for p, Initial residual = 0.0014658023, Final residual = 5.5727741e-07, No Iterations 65
time step continuity errors : sum local = 2.4639189e-09, global = -6.5933395e-12, cumulative = 5.312486e-08
ExecutionTime = 1.13 s  ClockTime = 7 s

fieldMinMax minmaxdomain write:
    min(p) = 0 in cell 2 at location (49 64 0)
    max(p) = 95.041452 in cell 8 at location (0.57735027 9 0)
    min(U) = (0.15866264 -0.24786027 -6.6664292e-17) in cell 471 at location (50.761792 7.9448173 0)
    max(U) = (1.2304661 0.27354484 1.3060467e-16) in cell 351 at location (34.280215 13.377712 0)

Time = 0.95

Courant Number mean: 0.081657968 max: 0.37846986
smoothSolver:  Solving for Ux, Initial residual = 0.027889779, Final residual = 1.2286688e-09, No Iterations 3
smoothSolver:  Solving for Uy, Initial residual = 0.015869933, Final residual = 4.9743242e-10, No Iterations 3
DICPCG:  Solving for p, Initial residual = 0.01234261, Final residual = 0.00010135371, No Iterations 64
DICPCG:  Solving for p, Initial residual = 0.31257827, Final residual = 0.0031057817, No Iterations 46
DICPCG:  Solving for p, Initial residual = 0.041170574, Final residual = 0.00033428267, No Iterations 56
DICPCG:  Solving for p, Initial residual = 0.0061074262, Final residual = 5.5690865e-05, No Iterations 49
time step continuity errors : sum local = 5.8982629e-08, global = 7.7278886e-10, cumulative = 5.3897648e-08
DICPCG:  Solving for p, Initial residual = 0.03471144, Final residual = 0.00027189092, No Iterations 65
DICPCG:  Solving for p, Initial residual = 0.09292416, Final residual = 0.0009195327, No Iterations 46
DICPCG:  Solving for p, Initial residual = 0.0097950835, Final residual = 8.7389217e-05, No Iterations 56
DICPCG:  Solving for p, Initial residual = 0.0014544133, Final residual = 5.5173864e-07, No Iterations 65
time step continuity errors : sum local = 2.3145029e-09, global = -6.3463207e-12, cumulative = 5.3891302e-08
ExecutionTime = 1.19 s  ClockTime = 7 s

fieldMinMax minmaxdomain write:
    min(p) = 0 in cell 2 at location (49 64 0)
    max(p) = 89.677292 in cell 8 at location (0.57735027 9 0)
    min(U) = (0.20542537 -0.21502248 -6.2939519e-17) in cell 471 at location (50.761792 7.9448173 0)
    max(U) = (1.2751856 0.28732613 1.229313e-16) in cell 351 at location (34.280215 13.377712 0)

Time = 1

Courant Number mean: 0.083655089 max: 0.37945556
smoothSolver:  Solving for Ux, Initial residual = 0.025523886, Final residual = 1.2398968e-09, No Iterations 3
smoothSolver:  Solving for Uy, Initial residual = 0.0146931, Final residual = 5.0630901e-10, No Iterations 3
DICPCG:  Solving for p, Initial residual = 0.012732125, Final residual = 0.00010004046, No Iterations 64
DICPCG:  Solving for p, Initial residual = 0.30369574, Final residual = 0.0030092362, No Iterations 46
DICPCG:  Solving for p, Initial residual = 0.039602406, Final residual = 0.00032793038, No Iterations 56
DICPCG:  Solving for p, Initial residual = 0.0058706336, Final residual = 5.4328952e-05, No Iterations 49
time step continuity errors : sum local = 5.6318745e-08, global = 6.7799963e-10, cumulative = 5.4569302e-08
DICPCG:  Solving for p, Initial residual = 0.033621544, Final residual = 0.00026173259, No Iterations 65
DICPCG:  Solving for p, Initial residual = 0.091910096, Final residual = 0.00090847235, No Iterations 46
DICPCG:  Solving for p, Initial residual = 0.0096965971, Final residual = 8.6049477e-05, No Iterations 56
DICPCG:  Solving for p, Initial residual = 0.0014398505, Final residual = 5.4509427e-07, No Iterations 65
time step continuity errors : sum local = 2.1595016e-09, global = -6.0599602e-12, cumulative = 5.4563242e-08
ExecutionTime = 1.26 s  ClockTime = 7 s

fieldMinMax minmaxdomain write:
    min(p) = 0 in cell 2 at location (49 64 0)
    max(p) = 84.044969 in cell 8 at location (0.57735027 9 0)
    min(U) = (0.24026116 -0.20293305 0) in cell 0 at location (0.66666667 15.333333 0)
    max(U) = (1.3168419 0.30050158 1.1493753e-16) in cell 351 at location (34.280215 13.377712 0)

Time = 1.05

Courant Number mean: 0.085526475 max: 0.38011364
smoothSolver:  Solving for Ux, Initial residual = 0.023286508, Final residual = 1.2330688e-09, No Iterations 3
smoothSolver:  Solving for Uy, Initial residual = 0.013557089, Final residual = 5.1929629e-10, No Iterations 3
DICPCG:  Solving for p, Initial residual = 0.01262333, Final residual = 0.00010207149, No Iterations 64
DICPCG:  Solving for p, Initial residual = 0.29644374, Final residual = 0.0029342001, No Iterations 46
DICPCG:  Solving for p, Initial residual = 0.038390731, Final residual = 0.00033129842, No Iterations 56
DICPCG:  Solving for p, Initial residual = 0.0056653551, Final residual = 5.3784966e-05, No Iterations 49
time step continuity errors : sum local = 5.3829274e-08, global = 6.0782845e-10, cumulative = 5.517107e-08
DICPCG:  Solving for p, Initial residual = 0.032757576, Final residual = 0.00025184929, No Iterations 65
DICPCG:  Solving for p, Initial residual = 0.091041613, Final residual = 0.00089908266, No Iterations 46
DICPCG:  Solving for p, Initial residual = 0.0096147173, Final residual = 8.5226295e-05, No Iterations 56
DICPCG:  Solving for p, Initial residual = 0.0014272276, Final residual = 9.9288982e-07, No Iterations 64
time step continuity errors : sum local = 3.6800227e-09, global = -3.916427e-11, cumulative = 5.5131906e-08
ExecutionTime = 1.32 s  ClockTime = 7 s

fieldMinMax minmaxdomain write:
    min(p) = 0 in cell 2 at location (49 64 0)
    max(p) = 78.160214 in cell 49 at location (0.57735027 7 0)
    min(U) = (0.25031885 -0.20839788 0) in cell 0 at location (0.66666667 15.333333 0)
    max(U) = (1.3553206 0.31295235 1.0664987e-16) in cell 351 at location (34.280215 13.377712 0)

Time = 1.1

Courant Number mean: 0.087260514 max: 0.38063843
smoothSolver:  Solving for Ux, Initial residual = 0.021183769, Final residual = 1.1652613e-09, No Iterations 3
smoothSolver:  Solving for Uy, Initial residual = 0.012424953, Final residual = 5.0357192e-10, No Iterations 3
DICPCG:  Solving for p, Initial residual = 0.012227364, Final residual = 0.00010077524, No Iterations 64
DICPCG:  Solving for p, Initial residual = 0.28804099, Final residual = 0.0028495515, No Iterations 46
DICPCG:  Solving for p, Initial residual = 0.036909913, Final residual = 0.00030942533, No Iterations 56
DICPCG:  Solving for p, Initial residual = 0.0054399352, Final residual = 5.0614472e-05, No Iterations 49
time step continuity errors : sum local = 4.8824342e-08, global = 5.8330112e-10, cumulative = 5.5715207e-08
DICPCG:  Solving for p, Initial residual = 0.031627965, Final residual = 0.00024162951, No Iterations 65
DICPCG:  Solving for p, Initial residual = 0.089886063, Final residual = 0.00088694312, No Iterations 46
DICPCG:  Solving for p, Initial residual = 0.0094999009, Final residual = 8.3935501e-05, No Iterations 56
DICPCG:  Solving for p, Initial residual = 0.0014098704, Final residual = 9.7862517e-07, No Iterations 64
time step continuity errors : sum local = 3.3732731e-09, global = -3.6180813e-11, cumulative = 5.5679026e-08
ExecutionTime = 1.38 s  ClockTime = 7 s

fieldMinMax minmaxdomain write:
    min(p) = 0 in cell 2 at location (49 64 0)
    max(p) = 72.046679 in cell 49 at location (0.57735027 7 0)
    min(U) = (0.25986399 -0.21312281 0) in cell 0 at location (0.66666667 15.333333 0)
    max(U) = (1.390587 0.32465872 9.8097898e-17) in cell 351 at location (34.280215 13.377712 0)

Time = 1.15

Courant Number mean: 0.088849874 max: 0.38104537
smoothSolver:  Solving for Ux, Initial residual = 0.019177701, Final residual = 1.0851538e-09, No Iterations 3
smoothSolver:  Solving for Uy, Initial residual = 0.011319137, Final residual = 4.9212695e-10, No Iterations 3
DICPCG:  Solving for p, Initial residual = 0.012235566, Final residual = 9.7173138e-05, No Iterations 64
DICPCG:  Solving for p, Initial residual = 0.27765153, Final residual = 0.0027430837, No Iterations 46
DICPCG:  Solving for p, Initial residual = 0.035121913, Final residual = 0.00029446935, No Iterations 56
DICPCG:  Solving for p, Initial residual = 0.0051955074, Final residual = 4.8533471e-05, No Iterations 49
time step continuity errors : sum local = 4.5113414e-08, global = 5.4732904e-10, cumulative = 5.6226355e-08
DICPCG:  Solving for p, Initial residual = 0.030208021, Final residual = 0.00022951994, No Iterations 65
DICPCG:  Solving for p, Initial residual = 0.08838163, Final residual = 0.00087123712, No Iterations 46
DICPCG:  Solving for p, Initial residual = 0.0093477838, Final residual = 8.2696613e-05, No Iterations 56
DICPCG:  Solving for p, Initial residual = 0.0013868694, Final residual = 9.6223828e-07, No Iterations 64
time step continuity errors : sum local = 3.0639846e-09, global = -3.2920816e-11, cumulative = 5.6193434e-08
ExecutionTime = 1.43 s  ClockTime = 7 s

fieldMinMax minmaxdomain write:
    min(p) = 0 in cell 2 at location (49 64 0)
    max(p) = 65.689279 in cell 49 at location (0.57735027 7 0)
    min(U) = (0.26885417 -0.21708607 0) in cell 0 at location (0.66666667 15.333333 0)
    max(U) = (1.4225773 0.33558102 8.9248371e-17) in cell 351 at location (34.280215 13.377712 0)

Time = 1.2

Courant Number mean: 0.090291469 max: 0.38192003
smoothSolver:  Solving for Ux, Initial residual = 0.017238999, Final residual = 1.0267659e-09, No Iterations 3
smoothSolver:  Solving for Uy, Initial residual = 0.010228914, Final residual = 4.8476456e-10, No Iterations 3
DICPCG:  Solving for p, Initial residual = 0.012278094, Final residual = 9.6342373e-05, No Iterations 64
DICPCG:  Solving for p, Initial residual = 0.26540647, Final residual = 0.0026197582, No Iterations 46
DICPCG:  Solving for p, Initial residual = 0.033139138, Final residual = 0.00028454955, No Iterations 56
DICPCG:  Solving for p, Initial residual = 0.0049047547, Final residual = 4.6597899e-05, No Iterations 49
time step continuity errors : sum local = 4.166394e-08, global = 4.8130424e-10, cumulative = 5.6674739e-08
DICPCG:  Solving for p, Initial residual = 0.028579932, Final residual = 0.00028522357, No Iterations 64
DICPCG:  Solving for p, Initial residual = 0.086497275, Final residual = 0.00085300594, No Iterations 46
DICPCG:  Solving for p, Initial residual = 0.0091596427, Final residual = 8.0636434e-05, No Iterations 56
DICPCG:  Solving for p, Initial residual = 0.0013587271, Final residual = 9.4215564e-07, No Iterations 64
time step continuity errors : sum local = 2.7461777e-09, global = -2.9451023e-11, cumulative = 5.6645288e-08
ExecutionTime = 1.49 s  ClockTime = 7 s

fieldMinMax minmaxdomain write:
    min(p) = 0 in cell 2 at location (49 64 0)
    max(p) = 59.128388 in cell 8 at location (0.57735027 9 0)
    min(U) = (0.27724971 -0.22027114 0) in cell 0 at location (0.66666667 15.333333 0)
    max(U) = (1.4512007 0.34563364 8.016405e-17) in cell 351 at location (34.280215 13.377712 0)

Time = 1.25

Courant Number mean: 0.091583537 max: 0.38572197
smoothSolver:  Solving for Ux, Initial residual = 0.015372983, Final residual = 9.5435201e-10, No Iterations 3
smoothSolver:  Solving for Uy, Initial residual = 0.0091509407, Final residual = 4.6881474e-10, No Iterations 3
DICPCG:  Solving for p, Initial residual = 0.012387764, Final residual = 9.5222489e-05, No Iterations 64
DICPCG:  Solving for p, Initial residual = 0.25143598, Final residual = 0.0024787195, No Iterations 46
DICPCG:  Solving for p, Initial residual = 0.030985217, Final residual = 0.00027708906, No Iterations 56
DICPCG:  Solving for p, Initial residual = 0.004585824, Final residual = 4.4600004e-05, No Iterations 49
time step continuity errors : sum local = 3.820487e-08, global = 4.0419687e-10, cumulative = 5.7049485e-08
DICPCG:  Solving for p, Initial residual = 0.026710518, Final residual = 0.00026491364, No Iterations 64
DICPCG:  Solving for p, Initial residual = 0.084100652, Final residual = 0.00082875451, No Iterations 46
DICPCG:  Solving for p, Initial residual = 0.0089154184, Final residual = 7.8133618e-05, No Iterations 56
DICPCG:  Solving for p, Initial residual = 0.0013222012, Final residual = 9.142006e-07, No Iterations 64
time step continuity errors : sum local = 2.4140978e-09, global = -2.6073597e-11, cumulative = 5.7023411e-08
ExecutionTime = 1.55 s  ClockTime = 7 s

fieldMinMax minmaxdomain write:
    min(p) = 0 in cell 2 at location (49 64 0)
    max(p) = 52.38001 in cell 8 at location (0.57735027 9 0)
    min(U) = (0.28501434 -0.22266707 0) in cell 0 at location (0.66666667 15.333333 0)
    max(U) = (1.4763657 0.3547331 7.0868197e-17) in cell 351 at location (34.280215 13.377712 0)

Time = 1.3

Courant Number mean: 0.092727529 max: 0.38926498
smoothSolver:  Solving for Ux, Initial residual = 0.013563125, Final residual = 8.7488513e-10, No Iterations 3
smoothSolver:  Solving for Uy, Initial residual = 0.0080906295, Final residual = 4.4920974e-10, No Iterations 3
DICPCG:  Solving for p, Initial residual = 0.012549899, Final residual = 9.4482444e-05, No Iterations 64
DICPCG:  Solving for p, Initial residual = 0.23568014, Final residual = 0.0023194678, No Iterations 46
DICPCG:  Solving for p, Initial residual = 0.028600943, Final residual = 0.00026613942, No Iterations 56
DICPCG:  Solving for p, Initial residual = 0.0042377517, Final residual = 4.1760078e-05, No Iterations 19
time step continuity errors : sum local = 3.4106258e-08, global = -6.1897004e-09, cumulative = 5.0833711e-08
DICPCG:  Solving for p, Initial residual = 0.02458317, Final residual = 0.00024083382, No Iterations 64
DICPCG:  Solving for p, Initial residual = 0.081103974, Final residual = 0.00079886789, No Iterations 46
DICPCG:  Solving for p, Initial residual = 0.0086065632, Final residual = 7.5599946e-05, No Iterations 56
DICPCG:  Solving for p, Initial residual = 0.0012765769, Final residual = 8.8209844e-07, No Iterations 64
time step continuity errors : sum local = 2.0828828e-09, global = -2.2543184e-11, cumulative = 5.0811167e-08
ExecutionTime = 1.59 s  ClockTime = 7 s

fieldMinMax minmaxdomain write:
    min(p) = 0 in cell 2 at location (49 64 0)
    max(p) = 45.467613 in cell 49 at location (0.57735027 7 0)
    min(U) = (0.29211503 -0.22426807 0) in cell 0 at location (0.66666667 15.333333 0)
    max(U) = (1.4978529 0.36276892 6.1386094e-17) in cell 351 at location (34.280215 13.377712 0)

Time = 1.35

Courant Number mean: 0.093713558 max: 0.39499301
smoothSolver:  Solving for Ux, Initial residual = 0.011812719, Final residual = 8.1176129e-10, No Iterations 3
smoothSolver:  Solving for Uy, Initial residual = 0.0070462268, Final residual = 4.3068671e-10, No Iterations 3
DICPCG:  Solving for p, Initial residual = 0.012827931, Final residual = 9.1802407e-05, No Iterations 64
DICPCG:  Solving for p, Initial residual = 0.217234, Final residual = 0.0021380435, No Iterations 46
DICPCG:  Solving for p, Initial residual = 0.025918661, Final residual = 0.00024406071, No Iterations 56
DICPCG:  Solving for p, Initial residual = 0.0038400676, Final residual = 3.7498825e-05, No Iterations 19
time step continuity errors : sum local = 2.9092056e-08, global = -5.2699898e-09, cumulative = 4.5541178e-08
DICPCG:  Solving for p, Initial residual = 0.022129943, Final residual = 0.00021371062, No Iterations 64
DICPCG:  Solving for p, Initial residual = 0.077154203, Final residual = 0.00075960775, No Iterations 46
DICPCG:  Solving for p, Initial residual = 0.0081969757, Final residual = 7.1607166e-05, No Iterations 56
DICPCG:  Solving for p, Initial residual = 0.0012153407, Final residual = 8.3818597e-07, No Iterations 64
time step continuity errors : sum local = 1.742065e-09, global = -1.8951487e-11, cumulative = 4.5522226e-08
ExecutionTime = 1.65 s  ClockTime = 7 s

fieldMinMax minmaxdomain write:
    min(p) = 0 in cell 2 at location (49 64 0)
    max(p) = 38.410397 in cell 49 at location (0.57735027 7 0)
    min(U) = (0.29852252 -0.22507366 0) in cell 0 at location (0.66666667 15.333333 0)
    max(U) = (1.5157099 0.3699518 5.1740689e-17) in cell 351 at location (34.280215 13.377712 0)

Time = 1.4

Courant Number mean: 0.094539433 max: 0.40067588
smoothSolver:  Solving for Ux, Initial residual = 0.010108017, Final residual = 7.5680164e-10, No Iterations 3
smoothSolver:  Solving for Uy, Initial residual = 0.006025593, Final residual = 4.1270912e-10, No Iterations 3
DICPCG:  Solving for p, Initial residual = 0.013441702, Final residual = 8.8499289e-05, No Iterations 64
DICPCG:  Solving for p, Initial residual = 0.19545842, Final residual = 0.0019196338, No Iterations 46
DICPCG:  Solving for p, Initial residual = 0.022889079, Final residual = 0.00022458407, No Iterations 56
DICPCG:  Solving for p, Initial residual = 0.0033909437, Final residual = 3.1999511e-05, No Iterations 19
time step continuity errors : sum local = 2.3488715e-08, global = -4.2774654e-09, cumulative = 4.1244761e-08
DICPCG:  Solving for p, Initial residual = 0.019293532, Final residual = 0.0001826572, No Iterations 64
DICPCG:  Solving for p, Initial residual = 0.071824974, Final residual = 0.00070674279, No Iterations 46
DICPCG:  Solving for p, Initial residual = 0.0076410237, Final residual = 6.6804359e-05, No Iterations 56
DICPCG:  Solving for p, Initial residual = 0.0011325863, Final residual = 7.8077283e-07, No Iterations 64
time step continuity errors : sum local = 1.3996056e-09, global = -1.5285223e-11, cumulative = 4.1229475e-08
ExecutionTime = 1.72 s  ClockTime = 7 s

fieldMinMax minmaxdomain write:
    min(p) = 0 in cell 2 at location (49 64 0)
    max(p) = 31.234324 in cell 49 at location (0.57735027 7 0)
    min(U) = (0.30424103 -0.22511814 0) in cell 0 at location (0.66666667 15.333333 0)
    max(U) = (1.5298737 0.37623687 4.1966041e-17) in cell 351 at location (34.280215 13.377712 0)

Time = 1.45

Courant Number mean: 0.095204504 max: 0.4061328
smoothSolver:  Solving for Ux, Initial residual = 0.0084727739, Final residual = 7.0295407e-10, No Iterations 3
smoothSolver:  Solving for Uy, Initial residual = 0.0050360102, Final residual = 4.018352e-10, No Iterations 3
DICPCG:  Solving for p, Initial residual = 0.014362933, Final residual = 8.2805857e-05, No Iterations 64
DICPCG:  Solving for p, Initial residual = 0.16989245, Final residual = 0.0016686075, No Iterations 46
DICPCG:  Solving for p, Initial residual = 0.019463425, Final residual = 0.00019363074, No Iterations 56
DICPCG:  Solving for p, Initial residual = 0.0028827364, Final residual = 2.6862699e-05, No Iterations 19
time step continuity errors : sum local = 1.8544968e-08, global = -3.3775053e-09, cumulative = 3.785197e-08
DICPCG:  Solving for p, Initial residual = 0.016043112, Final residual = 0.0001474805, No Iterations 64
DICPCG:  Solving for p, Initial residual = 0.06439597, Final residual = 0.00063335426, No Iterations 46
DICPCG:  Solving for p, Initial residual = 0.0068581234, Final residual = 6.0059488e-05, No Iterations 56
DICPCG:  Solving for p, Initial residual = 0.0010159925, Final residual = 7.0066885e-07, No Iterations 64
time step continuity errors : sum local = 1.0540733e-09, global = -1.1535661e-11, cumulative = 3.7840434e-08
ExecutionTime = 1.77 s  ClockTime = 8 s

fieldMinMax minmaxdomain write:
    min(p) = -0.0016894915 in cell 28 at location (51 63.42265 0)
    max(p) = 23.961036 in cell 49 at location (0.57735027 7 0)
    min(U) = (0.30925059 -0.22441177 0) in cell 0 at location (0.66666667 15.333333 0)
    max(U) = (1.5402882 0.38158623 3.2088749e-17) in cell 351 at location (34.280215 13.377712 0)

Time = 1.5

Courant Number mean: 0.095705365 max: 0.41132784
smoothSolver:  Solving for Ux, Initial residual = 0.0068901451, Final residual = 6.492396e-10, No Iterations 3
smoothSolver:  Solving for Uy, Initial residual = 0.00406773, Final residual = 3.8782528e-10, No Iterations 3
DICPCG:  Solving for p, Initial residual = 0.015888553, Final residual = 0.00013908412, No Iterations 63
DICPCG:  Solving for p, Initial residual = 0.13894631, Final residual = 0.0013640634, No Iterations 46
DICPCG:  Solving for p, Initial residual = 0.015219788, Final residual = 0.00011002802, No Iterations 57
DICPCG:  Solving for p, Initial residual = 0.0022608959, Final residual = 2.2593444e-05, No Iterations 19
time step continuity errors : sum local = 1.4785566e-08, global = -2.8375829e-09, cumulative = 3.5002852e-08
DICPCG:  Solving for p, Initial residual = 0.012138345, Final residual = 0.00010555005, No Iterations 64
DICPCG:  Solving for p, Initial residual = 0.053236946, Final residual = 0.0005235147, No Iterations 46
DICPCG:  Solving for p, Initial residual = 0.0056688268, Final residual = 4.9303207e-05, No Iterations 56
DICPCG:  Solving for p, Initial residual = 0.00083920339, Final residual = 9.1980396e-07, No Iterations 63
time step continuity errors : sum local = 1.1199551e-09, global = -2.2200972e-11, cumulative = 3.4980651e-08
ExecutionTime = 1.83 s  ClockTime = 8 s

fieldMinMax minmaxdomain write:
    min(p) = -0.036417529 in cell 28 at location (51 63.42265 0)
    max(p) = 16.606744 in cell 49 at location (0.57735027 7 0)
    min(U) = (0.31353338 -0.2229675 0) in cell 0 at location (0.66666667 15.333333 0)
    max(U) = (1.5469131 0.38597185 2.2121099e-17) in cell 351 at location (34.280215 13.377712 0)

Time = 1.55

Courant Number mean: 0.096041651 max: 0.41618191
smoothSolver:  Solving for Ux, Initial residual = 0.0053797059, Final residual = 6.0497958e-10, No Iterations 3
smoothSolver:  Solving for Uy, Initial residual = 0.0031222276, Final residual = 3.7277774e-10, No Iterations 3
DICPCG:  Solving for p, Initial residual = 0.018701533, Final residual = 0.00012535959, No Iterations 63
DICPCG:  Solving for p, Initial residual = 0.097692245, Final residual = 0.00095909251, No Iterations 46
DICPCG:  Solving for p, Initial residual = 0.01010212, Final residual = 7.7545239e-05, No Iterations 57
DICPCG:  Solving for p, Initial residual = 0.001501185, Final residual = 1.46466e-05, No Iterations 19
time step continuity errors : sum local = 9.5119867e-09, global = -1.8073764e-09, cumulative = 3.3173274e-08
DICPCG:  Solving for p, Initial residual = 0.0073906935, Final residual = 5.5176744e-05, No Iterations 64
DICPCG:  Solving for p, Initial residual = 0.034924868, Final residual = 0.00034337402, No Iterations 46
DICPCG:  Solving for p, Initial residual = 0.0037116533, Final residual = 3.200014e-05, No Iterations 56
DICPCG:  Solving for p, Initial residual = 0.00054871032, Final residual = 7.9830908e-07, No Iterations 62
time step continuity errors : sum local = 7.4491434e-10, global = -1.3462104e-11, cumulative = 3.3159812e-08
ExecutionTime = 1.89 s  ClockTime = 8 s

fieldMinMax minmaxdomain write:
    min(p) = -0.49731691 in cell 189 at location (56.614857 11.932551 0)
    max(p) = 9.1976589 in cell 49 at location (0.57735027 7 0)
    min(U) = (0.31707486 -0.22080162 0) in cell 0 at location (0.66666667 15.333333 0)
    max(U) = (1.5497142 0.38937121 1.2097003e-17) in cell 351 at location (34.280215 13.377712 0)

Time = 1.6

Courant Number mean: 0.096214681 max: 0.42063807
smoothSolver:  Solving for Ux, Initial residual = 0.0040467005, Final residual = 5.6567191e-10, No Iterations 3
smoothSolver:  Solving for Uy, Initial residual = 0.0022701711, Final residual = 3.528284e-10, No Iterations 3
DICPCG:  Solving for p, Initial residual = 0.023587961, Final residual = 0.00016869354, No Iterations 62
DICPCG:  Solving for p, Initial residual = 0.047291238, Final residual = 0.00046432963, No Iterations 46
DICPCG:  Solving for p, Initial residual = 0.0048230655, Final residual = 3.9408236e-05, No Iterations 57
DICPCG:  Solving for p, Initial residual = 0.00071311325, Final residual = 6.8487114e-06, No Iterations 19
time step continuity errors : sum local = 4.4642913e-09, global = -8.0584587e-10, cumulative = 3.2353966e-08
DICPCG:  Solving for p, Initial residual = 0.0028682501, Final residual = 1.9194766e-05, No Iterations 61
DICPCG:  Solving for p, Initial residual = 0.0010352948, Final residual = 9.5414029e-06, No Iterations 27
DICPCG:  Solving for p, Initial residual = 0.00011140908, Final residual = 1.1128394e-06, No Iterations 51
DICPCG:  Solving for p, Initial residual = 2.7109296e-05, Final residual = 9.0775679e-07, No Iterations 5
time step continuity errors : sum local = 5.9359249e-10, global = 1.2501795e-11, cumulative = 3.2366468e-08
ExecutionTime = 1.94 s  ClockTime = 8 s

fieldMinMax minmaxdomain write:
    min(p) = -4.1432857 in cell 189 at location (56.614857 11.932551 0)
    max(p) = 1.7528267 in cell 49 at location (0.57735027 7 0)
    min(U) = (0.31986397 -0.2179337 0) in cell 0 at location (0.66666667 15.333333 0)
    max(U) = (1.3460951 2.1496954 8.5645057e-19) in cell 6 at location (46.149765 23.460513 0)

Time = 1.65

Courant Number mean: 0.096220835 max: 0.42467872
smoothSolver:  Solving for Ux, Initial residual = 0.0033874696, Final residual = 5.2754045e-10, No Iterations 3
smoothSolver:  Solving for Uy, Initial residual = 0.0018772738, Final residual = 3.3346808e-10, No Iterations 3
DICPCG:  Solving for p, Initial residual = 0.032579813, Final residual = 0.00032444944, No Iterations 48
DICPCG:  Solving for p, Initial residual = 0.0051154083, Final residual = 4.8633645e-05, No Iterations 54
DICPCG:  Solving for p, Initial residual = 0.00062922428, Final residual = 6.1223044e-06, No Iterations 49
DICPCG:  Solving for p, Initial residual = 8.6441659e-05, Final residual = 9.1070918e-07, No Iterations 47
time step continuity errors : sum local = 5.9848358e-10, global = 2.3688578e-11, cumulative = 3.2390157e-08
DICPCG:  Solving for p, Initial residual = 0.0038469252, Final residual = 3.5514067e-05, No Iterations 65
DICPCG:  Solving for p, Initial residual = 0.040978434, Final residual = 0.00040106352, No Iterations 46
DICPCG:  Solving for p, Initial residual = 0.0043639299, Final residual = 3.8291132e-05, No Iterations 56
DICPCG:  Solving for p, Initial residual = 0.00064761606, Final residual = 8.7914989e-07, No Iterations 62
time step continuity errors : sum local = 6.9245605e-10, global = 1.1022697e-11, cumulative = 3.2401179e-08
ExecutionTime = 2 s  ClockTime = 8 s

fieldMinMax minmaxdomain write:
    min(p) = -7.781232 in cell 189 at location (56.614857 11.932551 0)
    max(p) = 0.20991744 in cell 2 at location (48.666667 63.333333 0)
    min(U) = (0.32189285 -0.21438598 0) in cell 0 at location (0.66666667 15.333333 0)
    max(U) = (1.3443911 2.1420847 3.5809972e-18) in cell 6 at location (46.149765 23.460513 0)

Time = 1.7

Courant Number mean: 0.096061242 max: 0.42825828
smoothSolver:  Solving for Ux, Initial residual = 0.0039884587, Final residual = 4.8705022e-10, No Iterations 3
smoothSolver:  Solving for Uy, Initial residual = 0.0022780176, Final residual = 3.1820837e-10, No Iterations 3
DICPCG:  Solving for p, Initial residual = 0.028720558, Final residual = 0.00020315987, No Iterations 62
DICPCG:  Solving for p, Initial residual = 0.052308969, Final residual = 0.00051221495, No Iterations 46
DICPCG:  Solving for p, Initial residual = 0.0056816918, Final residual = 4.4072832e-05, No Iterations 57
DICPCG:  Solving for p, Initial residual = 0.0008421391, Final residual = 8.2020428e-06, No Iterations 49
time step continuity errors : sum local = 5.4198207e-09, global = -7.5154217e-11, cumulative = 3.2326025e-08
DICPCG:  Solving for p, Initial residual = 0.0080726782, Final residual = 7.1339668e-05, No Iterations 65
DICPCG:  Solving for p, Initial residual = 0.062422855, Final residual = 0.0006110194, No Iterations 46
DICPCG:  Solving for p, Initial residual = 0.0066738114, Final residual = 5.91943e-05, No Iterations 56
DICPCG:  Solving for p, Initial residual = 0.00099002732, Final residual = 6.8205163e-07, No Iterations 64
time step continuity errors : sum local = 7.0259298e-10, global = 7.3110706e-12, cumulative = 3.2333336e-08
ExecutionTime = 2.06 s  ClockTime = 8 s

fieldMinMax minmaxdomain write:
    min(p) = -13.333241 in cell 22 at location (1.6666667 14.755983 0)
    max(p) = 0.14268105 in cell 2 at location (48.666667 63.333333 0)
    min(U) = (0.32315741 -0.21018361 0) in cell 0 at location (0.66666667 15.333333 0)
    max(U) = (1.3401304 2.1306476 6.2948792e-18) in cell 6 at location (46.149765 23.460513 0)

Time = 1.75

Courant Number mean: 0.095735725 max: 0.4313553
smoothSolver:  Solving for Ux, Initial residual = 0.0052598312, Final residual = 4.4569462e-10, No Iterations 3
smoothSolver:  Solving for Uy, Initial residual = 0.0030916538, Final residual = 2.9974247e-10, No Iterations 3
DICPCG:  Solving for p, Initial residual = 0.023702657, Final residual = 0.00013526701, No Iterations 63
DICPCG:  Solving for p, Initial residual = 0.098372991, Final residual = 0.00096539357, No Iterations 46
DICPCG:  Solving for p, Initial residual = 0.010830907, Final residual = 8.6460807e-05, No Iterations 56
DICPCG:  Solving for p, Initial residual = 0.0015997969, Final residual = 1.4005191e-05, No Iterations 49
time step continuity errors : sum local = 9.3046296e-09, global = -1.485726e-10, cumulative = 3.2184764e-08
DICPCG:  Solving for p, Initial residual = 0.01265852, Final residual = 0.00010592561, No Iterations 65
DICPCG:  Solving for p, Initial residual = 0.075129424, Final residual = 0.00073535019, No Iterations 46
DICPCG:  Solving for p, Initial residual = 0.0080259496, Final residual = 7.0388888e-05, No Iterations 56
DICPCG:  Solving for p, Initial residual = 0.0011898966, Final residual = 8.1782068e-07, No Iterations 64
time step continuity errors : sum local = 1.0489064e-09, global = 1.1084239e-11, cumulative = 3.2195848e-08
ExecutionTime = 2.12 s  ClockTime = 8 s

fieldMinMax minmaxdomain write:
    min(p) = -20.620016 in cell 157 at location (0.57735027 5 0)
    max(p) = 0.07514347 in cell 2 at location (48.666667 63.333333 0)
    min(U) = (0.32372155 -0.20534165 0) in cell 0 at location (0.66666667 15.333333 0)
    max(U) = (1.3333082 2.1153899 8.9942602e-18) in cell 6 at location (46.149765 23.460513 0)

Time = 1.8

Courant Number mean: 0.095244894 max: 0.43398496
smoothSolver:  Solving for Ux, Initial residual = 0.006768755, Final residual = 4.023381e-10, No Iterations 3
smoothSolver:  Solving for Uy, Initial residual = 0.0040469181, Final residual = 2.8035414e-10, No Iterations 3
DICPCG:  Solving for p, Initial residual = 0.021340457, Final residual = 0.00015413089, No Iterations 63
DICPCG:  Solving for p, Initial residual = 0.14115854, Final residual = 0.0013861391, No Iterations 46
DICPCG:  Solving for p, Initial residual = 0.015914823, Final residual = 0.00014263498, No Iterations 55
DICPCG:  Solving for p, Initial residual = 0.0023619847, Final residual = 2.3235383e-05, No Iterations 21
time step continuity errors : sum local = 1.550325e-08, global = 2.837981e-09, cumulative = 3.5033829e-08
DICPCG:  Solving for p, Initial residual = 0.017190656, Final residual = 0.00014105116, No Iterations 65
DICPCG:  Solving for p, Initial residual = 0.083329266, Final residual = 0.00081560696, No Iterations 46
DICPCG:  Solving for p, Initial residual = 0.0088673751, Final residual = 7.8070512e-05, No Iterations 56
DICPCG:  Solving for p, Initial residual = 0.0013145023, Final residual = 9.0477442e-07, No Iterations 64
time step continuity errors : sum local = 1.3965586e-09, global = 1.4715945e-11, cumulative = 3.5048545e-08
ExecutionTime = 2.17 s  ClockTime = 8 s

fieldMinMax minmaxdomain write:
    min(p) = -27.909987 in cell 157 at location (0.57735027 5 0)
    max(p) = 0.0076114717 in cell 2 at location (48.666667 63.333333 0)
    min(U) = (0.32367141 -0.19987423 0) in cell 0 at location (0.66666667 15.333333 0)
    max(U) = (1.3239298 2.0963279 1.1671186e-17) in cell 6 at location (46.149765 23.460513 0)

Time = 1.85

Courant Number mean: 0.094592018 max: 0.43616744
smoothSolver:  Solving for Ux, Initial residual = 0.0083880066, Final residual = 3.5926527e-10, No Iterations 3
smoothSolver:  Solving for Uy, Initial residual = 0.0050610755, Final residual = 2.634304e-10, No Iterations 3
DICPCG:  Solving for p, Initial residual = 0.019774108, Final residual = 0.00016763857, No Iterations 63
DICPCG:  Solving for p, Initial residual = 0.18008304, Final residual = 0.0017577474, No Iterations 46
DICPCG:  Solving for p, Initial residual = 0.020942928, Final residual = 0.00016513234, No Iterations 55
DICPCG:  Solving for p, Initial residual = 0.0031054596, Final residual = 2.7421791e-05, No Iterations 48
time step continuity errors : sum local = 1.8354399e-08, global = -2.7259616e-11, cumulative = 3.5021285e-08
DICPCG:  Solving for p, Initial residual = 0.02166145, Final residual = 0.00017541624, No Iterations 65
DICPCG:  Solving for p, Initial residual = 0.088910574, Final residual = 0.0008698584, No Iterations 46
DICPCG:  Solving for p, Initial residual = 0.0094201146, Final residual = 8.2878075e-05, No Iterations 56
DICPCG:  Solving for p, Initial residual = 0.0013965414, Final residual = 9.6145916e-07, No Iterations 64
time step continuity errors : sum local = 1.7377307e-09, global = 1.8270736e-11, cumulative = 3.5039556e-08
ExecutionTime = 2.23 s  ClockTime = 8 s

fieldMinMax minmaxdomain write:
    min(p) = -35.157258 in cell 8 at location (0.57735027 9 0)
    max(p) = 0 in cell 2 at location (49 64 0)
    min(U) = (0.32300724 -0.19381731 0) in cell 0 at location (0.66666667 15.333333 0)
    max(U) = (1.3120298 2.0735232 1.4317685e-17) in cell 6 at location (46.149765 23.460513 0)

Time = 1.9

Courant Number mean: 0.093776729 max: 0.4379487
smoothSolver:  Solving for Ux, Initial residual = 0.010117841, Final residual = 3.2203357e-10, No Iterations 3
smoothSolver:  Solving for Uy, Initial residual = 0.0061110577, Final residual = 2.4430778e-10, No Iterations 3
DICPCG:  Solving for p, Initial residual = 0.018134749, Final residual = 0.00017386776, No Iterations 63
DICPCG:  Solving for p, Initial residual = 0.21492124, Final residual = 0.002101476, No Iterations 46
DICPCG:  Solving for p, Initial residual = 0.025849667, Final residual = 0.00021533779, No Iterations 55
DICPCG:  Solving for p, Initial residual = 0.0038388948, Final residual = 3.7737668e-05, No Iterations 16
time step continuity errors : sum local = 2.5328266e-08, global = 5.4587556e-09, cumulative = 4.0498311e-08
DICPCG:  Solving for p, Initial residual = 0.025931217, Final residual = 0.0002084019, No Iterations 65
DICPCG:  Solving for p, Initial residual = 0.092825121, Final residual = 0.00090814114, No Iterations 46
DICPCG:  Solving for p, Initial residual = 0.009785296, Final residual = 8.6491924e-05, No Iterations 56
DICPCG:  Solving for p, Initial residual = 0.0014511153, Final residual = 5.4374081e-07, No Iterations 65
time step continuity errors : sum local = 1.1294665e-09, global = 3.1206762e-12, cumulative = 4.0501432e-08
ExecutionTime = 2.28 s  ClockTime = 8 s

fieldMinMax minmaxdomain write:
    min(p) = -42.316142 in cell 8 at location (0.57735027 9 0)
    max(p) = 0 in cell 2 at location (49 64 0)
    min(U) = (0.32173153 -0.18720958 0) in cell 0 at location (0.66666667 15.333333 0)
    max(U) = (1.2976236 2.0470038 1.6934205e-17) in cell 6 at location (46.149765 23.460513 0)

Time = 1.95

Courant Number mean: 0.09280095 max: 0.43934037
smoothSolver:  Solving for Ux, Initial residual = 0.011950093, Final residual = 2.8432291e-10, No Iterations 3
smoothSolver:  Solving for Uy, Initial residual = 0.007176725, Final residual = 2.2408552e-10, No Iterations 3
DICPCG:  Solving for p, Initial residual = 0.01722253, Final residual = 0.00010222072, No Iterations 64
DICPCG:  Solving for p, Initial residual = 0.24518953, Final residual = 0.0024013815, No Iterations 46
DICPCG:  Solving for p, Initial residual = 0.030643493, Final residual = 0.0002688999, No Iterations 55
DICPCG:  Solving for p, Initial residual = 0.0045567432, Final residual = 3.7718852e-05, No Iterations 48
time step continuity errors : sum local = 2.5411216e-08, global = -2.6641171e-11, cumulative = 4.0474791e-08
DICPCG:  Solving for p, Initial residual = 0.030065574, Final residual = 0.00024021172, No Iterations 65
DICPCG:  Solving for p, Initial residual = 0.095570724, Final residual = 0.00093485253, No Iterations 46
DICPCG:  Solving for p, Initial residual = 0.010024633, Final residual = 8.7976557e-05, No Iterations 56
DICPCG:  Solving for p, Initial residual = 0.0014867135, Final residual = 5.5655756e-07, No Iterations 65
time step continuity errors : sum local = 1.307441e-09, global = 3.6183005e-12, cumulative = 4.0478409e-08
ExecutionTime = 2.34 s  ClockTime = 8 s

fieldMinMax minmaxdomain write:
    min(p) = -49.344765 in cell 8 at location (0.57735027 9 0)
    max(p) = 0 in cell 2 at location (49 64 0)
    min(U) = (0.31984612 -0.18008945 0) in cell 0 at location (0.66666667 15.333333 0)
    max(U) = (1.2807381 2.0168136 1.9509652e-17) in cell 6 at location (46.149765 23.460513 0)

Time = 2

Courant Number mean: 0.091667961 max: 0.44032908
smoothSolver:  Solving for Ux, Initial residual = 0.013869371, Final residual = 2.4748096e-10, No Iterations 3
smoothSolver:  Solving for Uy, Initial residual = 0.0082611552, Final residual = 2.0378352e-10, No Iterations 3
DICPCG:  Solving for p, Initial residual = 0.016525853, Final residual = 0.00010431705, No Iterations 64
DICPCG:  Solving for p, Initial residual = 0.27221542, Final residual = 0.0026651189, No Iterations 46
DICPCG:  Solving for p, Initial residual = 0.035383604, Final residual = 0.00026219009, No Iterations 56
DICPCG:  Solving for p, Initial residual = 0.0052380211, Final residual = 4.9470557e-05, No Iterations 48
time step continuity errors : sum local = 3.3371293e-08, global = -2.2480937e-10, cumulative = 4.02536e-08
DICPCG:  Solving for p, Initial residual = 0.034117043, Final residual = 0.00027202787, No Iterations 65
DICPCG:  Solving for p, Initial residual = 0.097688075, Final residual = 0.00095547787, No Iterations 46
DICPCG:  Solving for p, Initial residual = 0.010197542, Final residual = 8.9913599e-05, No Iterations 56
DICPCG:  Solving for p, Initial residual = 0.0015129038, Final residual = 5.6776361e-07, No Iterations 65
time step continuity errors : sum local = 1.4871303e-09, global = 3.8894318e-12, cumulative = 4.0257489e-08
ExecutionTime = 2.4 s  ClockTime = 8 s

fieldMinMax minmaxdomain write:
    min(p) = -56.217904 in cell 8 at location (0.57735027 9 0)
    max(p) = 0 in cell 2 at location (49 64 0)
    min(U) = (0.31735592 -0.17249747 0) in cell 0 at location (0.66666667 15.333333 0)
    max(U) = (1.2614332 1.98305 2.2033835e-17) in cell 6 at location (46.149765 23.460513 0)

Time = 2.05

Courant Number mean: 0.090382501 max: 0.44092932
smoothSolver:  Solving for Ux, Initial residual = 0.015867872, Final residual = 2.1288788e-10, No Iterations 3
smoothSolver:  Solving for Uy, Initial residual = 0.0093675618, Final residual = 1.8393476e-10, No Iterations 3
DICPCG:  Solving for p, Initial residual = 0.015926634, Final residual = 0.00010530505, No Iterations 64
DICPCG:  Solving for p, Initial residual = 0.29544607, Final residual = 0.0028957533, No Iterations 46
DICPCG:  Solving for p, Initial residual = 0.039905367, Final residual = 0.00029643099, No Iterations 56
DICPCG:  Solving for p, Initial residual = 0.0059133382, Final residual = 5.6049966e-05, No Iterations 48
time step continuity errors : sum local = 3.7933014e-08, global = -2.4951722e-10, cumulative = 4.0007972e-08
DICPCG:  Solving for p, Initial residual = 0.0378861, Final residual = 0.00030183713, No Iterations 65
DICPCG:  Solving for p, Initial residual = 0.099279368, Final residual = 0.00097106501, No Iterations 46
DICPCG:  Solving for p, Initial residual = 0.010319614, Final residual = 9.084781e-05, No Iterations 56
DICPCG:  Solving for p, Initial residual = 0.001530981, Final residual = 5.7490021e-07, No Iterations 65
time step continuity errors : sum local = 1.6599806e-09, global = 4.2322929e-12, cumulative = 4.0012204e-08
ExecutionTime = 2.46 s  ClockTime = 8 s

fieldMinMax minmaxdomain write:
    min(p) = -62.922601 in cell 8 at location (0.57735027 9 0)
    max(p) = 0 in cell 2 at location (49 64 0)
    min(U) = (0.314268 -0.16447549 0) in cell 0 at location (0.66666667 15.333333 0)
    max(U) = (1.239757 1.9457434 2.4500659e-17) in cell 6 at location (46.149765 23.460513 0)

Time = 2.1

Courant Number mean: 0.088949041 max: 0.44118189
smoothSolver:  Solving for Ux, Initial residual = 0.017975712, Final residual = 1.8548309e-10, No Iterations 3
smoothSolver:  Solving for Uy, Initial residual = 0.010488537, Final residual = 1.6561105e-10, No Iterations 3
DICPCG:  Solving for p, Initial residual = 0.015188378, Final residual = 0.00010579587, No Iterations 64
DICPCG:  Solving for p, Initial residual = 0.31563896, Final residual = 0.0030886155, No Iterations 46
DICPCG:  Solving for p, Initial residual = 0.044166546, Final residual = 0.0003567133, No Iterations 56
DICPCG:  Solving for p, Initial residual = 0.0065672404, Final residual = 5.886093e-05, No Iterations 49
time step continuity errors : sum local = 4.0011591e-08, global = -5.8287845e-10, cumulative = 3.9429326e-08
DICPCG:  Solving for p, Initial residual = 0.041527396, Final residual = 0.00032997077, No Iterations 65
DICPCG:  Solving for p, Initial residual = 0.10050725, Final residual = 0.00098297625, No Iterations 46
DICPCG:  Solving for p, Initial residual = 0.010407105, Final residual = 9.1521586e-05, No Iterations 56
DICPCG:  Solving for p, Initial residual = 0.0015439836, Final residual = 5.8019197e-07, No Iterations 65
time step continuity errors : sum local = 1.8283143e-09, global = 4.5085709e-12, cumulative = 3.9433834e-08
ExecutionTime = 2.51 s  ClockTime = 8 s

fieldMinMax minmaxdomain write:
    min(p) = -69.430952 in cell 8 at location (0.57735027 9 0)
    max(p) = 0 in cell 2 at location (49 64 0)
    min(U) = (0.31059176 -0.15606664 0) in cell 0 at location (0.66666667 15.333333 0)
    max(U) = (1.2157968 1.9049934 2.6903549e-17) in cell 6 at location (46.149765 23.460513 0)

Time = 2.15

Courant Number mean: 0.087367931 max: 0.44112799
smoothSolver:  Solving for Ux, Initial residual = 0.020180206, Final residual = 1.7878393e-10, No Iterations 3
smoothSolver:  Solving for Uy, Initial residual = 0.0116256, Final residual = 1.5875541e-10, No Iterations 3
DICPCG:  Solving for p, Initial residual = 0.014266578, Final residual = 0.00010331509, No Iterations 64
DICPCG:  Solving for p, Initial residual = 0.33184117, Final residual = 0.0032518651, No Iterations 46
DICPCG:  Solving for p, Initial residual = 0.047967468, Final residual = 0.00035704258, No Iterations 56
DICPCG:  Solving for p, Initial residual = 0.0071317653, Final residual = 6.8017837e-05, No Iterations 48
time step continuity errors : sum local = 4.6729125e-08, global = -3.0656226e-10, cumulative = 3.9127272e-08
DICPCG:  Solving for p, Initial residual = 0.044499137, Final residual = 0.00035401259, No Iterations 65
DICPCG:  Solving for p, Initial residual = 0.10128719, Final residual = 0.0009906116, No Iterations 46
DICPCG:  Solving for p, Initial residual = 0.010457285, Final residual = 9.1305677e-05, No Iterations 56
DICPCG:  Solving for p, Initial residual = 0.0015510947, Final residual = 5.8238489e-07, No Iterations 65
time step continuity errors : sum local = 1.9881834e-09, global = 4.8865261e-12, cumulative = 3.9132159e-08
ExecutionTime = 2.57 s  ClockTime = 8 s

fieldMinMax minmaxdomain write:
    min(p) = -75.753312 in cell 8 at location (0.57735027 9 0)
    max(p) = 0 in cell 2 at location (49 64 0)
    min(U) = (0.30634026 -0.14731654 0) in cell 0 at location (0.66666667 15.333333 0)
    max(U) = (1.1895746 1.860838 2.9248903e-17) in cell 6 at location (46.149765 23.460513 0)

Time = 2.2

Courant Number mean: 0.085643314 max: 0.44075491
smoothSolver:  Solving for Ux, Initial residual = 0.022522262, Final residual = 2.1482076e-10, No Iterations 3
smoothSolver:  Solving for Uy, Initial residual = 0.012783749, Final residual = 1.5317157e-10, No Iterations 3
DICPCG:  Solving for p, Initial residual = 0.013687126, Final residual = 0.00010199668, No Iterations 64
DICPCG:  Solving for p, Initial residual = 0.34553448, Final residual = 0.0033860513, No Iterations 46
DICPCG:  Solving for p, Initial residual = 0.051363553, Final residual = 0.00050252257, No Iterations 55
DICPCG:  Solving for p, Initial residual = 0.0077047782, Final residual = 7.1137624e-05, No Iterations 48
time step continuity errors : sum local = 4.9577148e-08, global = -9.6444792e-10, cumulative = 3.8167711e-08
DICPCG:  Solving for p, Initial residual = 0.047130947, Final residual = 0.00037533382, No Iterations 65
DICPCG:  Solving for p, Initial residual = 0.10182175, Final residual = 0.00099578612, No Iterations 46
DICPCG:  Solving for p, Initial residual = 0.010487475, Final residual = 9.1619489e-05, No Iterations 56
DICPCG:  Solving for p, Initial residual = 0.0015555441, Final residual = 5.8486057e-07, No Iterations 65
time step continuity errors : sum local = 2.1470461e-09, global = 5.0509634e-12, cumulative = 3.8172762e-08
ExecutionTime = 2.63 s  ClockTime = 8 s

fieldMinMax minmaxdomain write:
    min(p) = -81.848346 in cell 8 at location (0.57735027 9 0)
    max(p) = 0 in cell 2 at location (49 64 0)
    min(U) = (0.30152972 -0.13827299 0) in cell 0 at location (0.66666667 15.333333 0)
    max(U) = (1.1611671 1.8134083 3.152025e-17) in cell 6 at location (46.149765 23.460513 0)

Time = 2.25

Courant Number mean: 0.083780077 max: 0.44006875
smoothSolver:  Solving for Ux, Initial residual = 0.025023994, Final residual = 2.5827338e-10, No Iterations 3
smoothSolver:  Solving for Uy, Initial residual = 0.013967645, Final residual = 1.4618672e-10, No Iterations 3
DICPCG:  Solving for p, Initial residual = 0.013403921, Final residual = 0.00010273895, No Iterations 64
DICPCG:  Solving for p, Initial residual = 0.35755861, Final residual = 0.0034993814, No Iterations 46
DICPCG:  Solving for p, Initial residual = 0.054426553, Final residual = 0.00052343104, No Iterations 55
DICPCG:  Solving for p, Initial residual = 0.0081595854, Final residual = 7.2928269e-05, No Iterations 48
time step continuity errors : sum local = 5.1672555e-08, global = -9.9039038e-10, cumulative = 3.7182371e-08
DICPCG:  Solving for p, Initial residual = 0.049327945, Final residual = 0.00039350726, No Iterations 65
DICPCG:  Solving for p, Initial residual = 0.10214867, Final residual = 0.00099893191, No Iterations 46
DICPCG:  Solving for p, Initial residual = 0.010503481, Final residual = 9.1652451e-05, No Iterations 56
DICPCG:  Solving for p, Initial residual = 0.0015578261, Final residual = 5.8632664e-07, No Iterations 65
time step continuity errors : sum local = 2.2992172e-09, global = 5.1964049e-12, cumulative = 3.7187568e-08
ExecutionTime = 2.7 s  ClockTime = 8 s

fieldMinMax minmaxdomain write:
    min(p) = -87.705582 in cell 8 at location (0.57735027 9 0)
    max(p) = 0 in cell 2 at location (49 64 0)
    min(U) = (0.29617882 -0.12898525 0) in cell 0 at location (0.66666667 15.333333 0)
    max(U) = (1.1306459 1.7628218 3.3715345e-17) in cell 6 at location (46.149765 23.460513 0)

Time = 2.3

Courant Number mean: 0.081782382 max: 0.4390766
smoothSolver:  Solving for Ux, Initial residual = 0.027714882, Final residual = 3.0282289e-10, No Iterations 3
smoothSolver:  Solving for Uy, Initial residual = 0.015169536, Final residual = 1.3726775e-10, No Iterations 3
DICPCG:  Solving for p, Initial residual = 0.013049931, Final residual = 0.00010232736, No Iterations 64
DICPCG:  Solving for p, Initial residual = 0.36797651, Final residual = 0.003601587, No Iterations 46
DICPCG:  Solving for p, Initial residual = 0.057044772, Final residual = 0.00042421147, No Iterations 56
[...]
time step continuity errors : sum local = 5.3681252e-08, global = 1.2084087e-09, cumulative = -2.3302685e-07
DICPCG:  Solving for p, Initial residual = 0.030984145, Final residual = 0.00023932928, No Iterations 65
DICPCG:  Solving for p, Initial residual = 0.094608045, Final residual = 0.00092725452, No Iterations 46
DICPCG:  Solving for p, Initial residual = 0.00986545, Final residual = 8.0128907e-05, No Iterations 57
DICPCG:  Solving for p, Initial residual = 0.0014325695, Final residual = 6.0974561e-07, No Iterations 65
time step continuity errors : sum local = 2.730428e-09, global = 2.2281349e-11, cumulative = -2.3300457e-07
ExecutionTime = 56.35 s  ClockTime = 62 s

fieldMinMax minmaxdomain write:
    min(p) = 0 in cell 2 at location (49 64 0)
    max(p) = 91.678827 in cell 48 at location (1.1547005 8 0)
    min(U) = (-1.5999004 -2.2097987 -4.8223811e-17) in cell 39 at location (45.020077 21.815745 0)
    max(U) = (-0.003130536 3.1220401 9.3225015e-17) in cell 282 at location (54.136986 4.0046481 0)

Time = 49.5

Courant Number mean: 0.056148592 max: 0.41345911
smoothSolver:  Solving for Ux, Initial residual = 0.025565486, Final residual = 5.242718e-10, No Iterations 3
smoothSolver:  Solving for Uy, Initial residual = 0.020496214, Final residual = 1.6206317e-10, No Iterations 3
DICPCG:  Solving for p, Initial residual = 0.016814027, Final residual = 0.00010096079, No Iterations 64
DICPCG:  Solving for p, Initial residual = 0.2827558, Final residual = 0.0027689716, No Iterations 46
DICPCG:  Solving for p, Initial residual = 0.037149559, Final residual = 0.00030328594, No Iterations 57
DICPCG:  Solving for p, Initial residual = 0.0053772056, Final residual = 4.6886135e-05, No Iterations 50
time step continuity errors : sum local = 5.5996622e-08, global = 1.290391e-09, cumulative = -2.3171418e-07
DICPCG:  Solving for p, Initial residual = 0.031713031, Final residual = 0.0002466331, No Iterations 65
DICPCG:  Solving for p, Initial residual = 0.094923499, Final residual = 0.00093216142, No Iterations 46
DICPCG:  Solving for p, Initial residual = 0.0099161413, Final residual = 8.0548598e-05, No Iterations 57
DICPCG:  Solving for p, Initial residual = 0.001440239, Final residual = 6.152226e-07, No Iterations 65
time step continuity errors : sum local = 2.8874302e-09, global = 2.3513606e-11, cumulative = -2.3169066e-07
ExecutionTime = 56.4 s  ClockTime = 62 s

fieldMinMax minmaxdomain write:
    min(p) = 0 in cell 2 at location (49 64 0)
    max(p) = 96.6917 in cell 48 at location (1.1547005 8 0)
    min(U) = (-1.5653625 -2.1617127 -5.1279348e-17) in cell 39 at location (45.020077 21.815745 0)
    max(U) = (-0.0022737969 3.1221531 9.8825395e-17) in cell 282 at location (54.136986 4.0046481 0)

Time = 49.55

Courant Number mean: 0.054854765 max: 0.41339038
smoothSolver:  Solving for Ux, Initial residual = 0.027714117, Final residual = 5.6694471e-10, No Iterations 3
smoothSolver:  Solving for Uy, Initial residual = 0.021407199, Final residual = 1.667037e-10, No Iterations 3
DICPCG:  Solving for p, Initial residual = 0.017689325, Final residual = 9.77941e-05, No Iterations 64
DICPCG:  Solving for p, Initial residual = 0.29165363, Final residual = 0.0028861272, No Iterations 46
DICPCG:  Solving for p, Initial residual = 0.038808848, Final residual = 0.00035088364, No Iterations 57
DICPCG:  Solving for p, Initial residual = 0.0056379232, Final residual = 5.1312498e-05, No Iterations 50
time step continuity errors : sum local = 6.1654734e-08, global = 1.4312063e-09, cumulative = -2.3025946e-07
DICPCG:  Solving for p, Initial residual = 0.032868673, Final residual = 0.00025681528, No Iterations 65
DICPCG:  Solving for p, Initial residual = 0.094873689, Final residual = 0.00093416206, No Iterations 46
DICPCG:  Solving for p, Initial residual = 0.0099004291, Final residual = 8.0397932e-05, No Iterations 57
DICPCG:  Solving for p, Initial residual = 0.0014385537, Final residual = 6.1722633e-07, No Iterations 65
time step continuity errors : sum local = 3.0407466e-09, global = 2.4630545e-11, cumulative = -2.3023483e-07
ExecutionTime = 56.45 s  ClockTime = 62 s

fieldMinMax minmaxdomain write:
    min(p) = 0 in cell 2 at location (49 64 0)
    max(p) = 101.52526 in cell 48 at location (1.1547005 8 0)
    min(U) = (-1.5291733 -2.1110685 -5.4405949e-17) in cell 39 at location (45.020077 21.815745 0)
    max(U) = (-0.0013634959 3.12226 1.045348e-16) in cell 282 at location (54.136986 4.0046481 0)

Time = 49.6

Courant Number mean: 0.053576503 max: 0.41331976
smoothSolver:  Solving for Ux, Initial residual = 0.029905943, Final residual = 6.179127e-10, No Iterations 3
smoothSolver:  Solving for Uy, Initial residual = 0.022272834, Final residual = 1.7366334e-10, No Iterations 3
DICPCG:  Solving for p, Initial residual = 0.018484774, Final residual = 0.00010049209, No Iterations 64
DICPCG:  Solving for p, Initial residual = 0.29582058, Final residual = 0.0029285587, No Iterations 46
DICPCG:  Solving for p, Initial residual = 0.039225903, Final residual = 0.00034236527, No Iterations 57
DICPCG:  Solving for p, Initial residual = 0.0057023155, Final residual = 5.12247e-05, No Iterations 50
time step continuity errors : sum local = 6.3925769e-08, global = 1.4551917e-09, cumulative = -2.2877964e-07
DICPCG:  Solving for p, Initial residual = 0.032813115, Final residual = 0.00025782863, No Iterations 65
DICPCG:  Solving for p, Initial residual = 0.094771194, Final residual = 0.00093588847, No Iterations 46
DICPCG:  Solving for p, Initial residual = 0.0099090287, Final residual = 8.0288767e-05, No Iterations 57
DICPCG:  Solving for p, Initial residual = 0.0014403727, Final residual = 6.2065186e-07, No Iterations 65
time step continuity errors : sum local = 3.1872599e-09, global = 2.5805811e-11, cumulative = -2.2875383e-07
ExecutionTime = 56.51 s  ClockTime = 62 s

fieldMinMax minmaxdomain write:
    min(p) = 0 in cell 2 at location (49 64 0)
    max(p) = 105.7044 in cell 48 at location (1.1547005 8 0)
    min(U) = (-1.4916237 -2.0582339 -5.7204201e-17) in cell 39 at location (45.020077 21.815745 0)
    max(U) = (-0.00039749639 3.1223633 1.0967787e-16) in cell 282 at location (54.136986 4.0046481 0)

Time = 49.65

Courant Number mean: 0.052323152 max: 0.41322268
smoothSolver:  Solving for Ux, Initial residual = 0.032219377, Final residual = 6.7504175e-10, No Iterations 3
smoothSolver:  Solving for Uy, Initial residual = 0.02299292, Final residual = 1.8149282e-10, No Iterations 3
DICPCG:  Solving for p, Initial residual = 0.01816113, Final residual = 0.00010825381, No Iterations 64
DICPCG:  Solving for p, Initial residual = 0.29920476, Final residual = 0.0029648983, No Iterations 46
DICPCG:  Solving for p, Initial residual = 0.039493259, Final residual = 0.00033602226, No Iterations 57
DICPCG:  Solving for p, Initial residual = 0.005706268, Final residual = 5.0984392e-05, No Iterations 50
time step continuity errors : sum local = 6.6106593e-08, global = 1.5585393e-09, cumulative = -2.2719529e-07
DICPCG:  Solving for p, Initial residual = 0.032541919, Final residual = 0.00025735946, No Iterations 65
DICPCG:  Solving for p, Initial residual = 0.094788922, Final residual = 0.0009388614, No Iterations 46
DICPCG:  Solving for p, Initial residual = 0.009929789, Final residual = 8.0544044e-05, No Iterations 57
DICPCG:  Solving for p, Initial residual = 0.0014433332, Final residual = 6.2569786e-07, No Iterations 65
time step continuity errors : sum local = 3.3322973e-09, global = 2.7095775e-11, cumulative = -2.2716819e-07
ExecutionTime = 56.57 s  ClockTime = 62 s

fieldMinMax minmaxdomain write:
    min(p) = 0 in cell 2 at location (49 64 0)
    max(p) = 109.36601 in cell 48 at location (1.1547005 8 0)
    min(U) = (-1.4524551 -2.0030061 -5.9624448e-17) in cell 39 at location (45.020077 21.815745 0)
    max(U) = (0.00061251651 3.1224594 1.1420338e-16) in cell 282 at location (54.136986 4.0046481 0)

Time = 49.7

Courant Number mean: 0.051136838 max: 0.41308439
smoothSolver:  Solving for Ux, Initial residual = 0.034576134, Final residual = 7.2870257e-10, No Iterations 3
smoothSolver:  Solving for Uy, Initial residual = 0.023589399, Final residual = 1.870534e-10, No Iterations 3
DICPCG:  Solving for p, Initial residual = 0.021445677, Final residual = 0.00011115894, No Iterations 64
DICPCG:  Solving for p, Initial residual = 0.30451684, Final residual = 0.0030279205, No Iterations 46
DICPCG:  Solving for p, Initial residual = 0.039880031, Final residual = 0.00033210045, No Iterations 57
DICPCG:  Solving for p, Initial residual = 0.0057963838, Final residual = 5.1846961e-05, No Iterations 50
time step continuity errors : sum local = 6.9145144e-08, global = 1.5425916e-09, cumulative = -2.256256e-07
DICPCG:  Solving for p, Initial residual = 0.032559998, Final residual = 0.00025988337, No Iterations 65
DICPCG:  Solving for p, Initial residual = 0.095324311, Final residual = 0.00094687374, No Iterations 46
DICPCG:  Solving for p, Initial residual = 0.010014591, Final residual = 8.1109157e-05, No Iterations 57
DICPCG:  Solving for p, Initial residual = 0.0014558111, Final residual = 6.3437818e-07, No Iterations 65
time step continuity errors : sum local = 3.4681149e-09, global = 2.8311054e-11, cumulative = -2.2559729e-07
ExecutionTime = 56.62 s  ClockTime = 62 s

fieldMinMax minmaxdomain write:
    min(p) = 0 in cell 2 at location (49 64 0)
    max(p) = 112.64921 in cell 48 at location (1.1547005 8 0)
    min(U) = (-1.4114601 -1.9451612 -6.2028817e-17) in cell 39 at location (45.020077 21.815745 0)
    max(U) = (0.0016517345 3.1225436 1.1833841e-16) in cell 282 at location (54.136986 4.0046481 0)

Time = 49.75

Courant Number mean: 0.050008915 max: 0.4128329
smoothSolver:  Solving for Ux, Initial residual = 0.037105354, Final residual = 7.774574e-10, No Iterations 3
smoothSolver:  Solving for Uy, Initial residual = 0.024048256, Final residual = 1.8973732e-10, No Iterations 3
DICPCG:  Solving for p, Initial residual = 0.020795867, Final residual = 0.00020373864, No Iterations 63
DICPCG:  Solving for p, Initial residual = 0.31295698, Final residual = 0.0031244126, No Iterations 46
DICPCG:  Solving for p, Initial residual = 0.041019839, Final residual = 0.00035510623, No Iterations 57
DICPCG:  Solving for p, Initial residual = 0.0059647561, Final residual = 5.3696395e-05, No Iterations 50
time step continuity errors : sum local = 7.205847e-08, global = 1.6799743e-09, cumulative = -2.2391732e-07
DICPCG:  Solving for p, Initial residual = 0.033021893, Final residual = 0.00026736766, No Iterations 65
DICPCG:  Solving for p, Initial residual = 0.094907826, Final residual = 0.00094517409, No Iterations 46
DICPCG:  Solving for p, Initial residual = 0.01000037, Final residual = 8.0902698e-05, No Iterations 57
DICPCG:  Solving for p, Initial residual = 0.0014542079, Final residual = 6.3725293e-07, No Iterations 65
time step continuity errors : sum local = 3.5974673e-09, global = 2.9352791e-11, cumulative = -2.2388797e-07
ExecutionTime = 56.67 s  ClockTime = 62 s

fieldMinMax minmaxdomain write:
    min(p) = 0 in cell 2 at location (49 64 0)
    max(p) = 116.34047 in cell 49 at location (0.57735027 7 0)
    min(U) = (-1.3691114 -1.8852671 -6.4863567e-17) in cell 39 at location (45.020077 21.815745 0)
    max(U) = (0.0027548485 3.1226328 1.2335238e-16) in cell 282 at location (54.136986 4.0046481 0)

Time = 49.8

Courant Number mean: 0.049019814 max: 0.41244803
smoothSolver:  Solving for Ux, Initial residual = 0.039645348, Final residual = 8.3570638e-10, No Iterations 3
smoothSolver:  Solving for Uy, Initial residual = 0.024605145, Final residual = 1.9809766e-10, No Iterations 3
DICPCG:  Solving for p, Initial residual = 0.02249542, Final residual = 0.00020154024, No Iterations 63
DICPCG:  Solving for p, Initial residual = 0.3190953, Final residual = 0.0031658359, No Iterations 46
DICPCG:  Solving for p, Initial residual = 0.041825858, Final residual = 0.0004035201, No Iterations 56
DICPCG:  Solving for p, Initial residual = 0.0061131107, Final residual = 6.0812346e-05, No Iterations 21
time step continuity errors : sum local = 8.2290791e-08, global = -1.350898e-08, cumulative = -2.3739695e-07
DICPCG:  Solving for p, Initial residual = 0.033400265, Final residual = 0.00027266638, No Iterations 65
DICPCG:  Solving for p, Initial residual = 0.094941765, Final residual = 0.00094709701, No Iterations 46
DICPCG:  Solving for p, Initial residual = 0.010010592, Final residual = 8.0220644e-05, No Iterations 57
DICPCG:  Solving for p, Initial residual = 0.0014555497, Final residual = 6.4106653e-07, No Iterations 65
time step continuity errors : sum local = 3.7174157e-09, global = 3.0215288e-11, cumulative = -2.3736673e-07
ExecutionTime = 56.72 s  ClockTime = 63 s

fieldMinMax minmaxdomain write:
    min(p) = 0 in cell 2 at location (49 64 0)
    max(p) = 119.83905 in cell 8 at location (0.57735027 9 0)
    min(U) = (-1.3256491 -1.8236678 -6.7282301e-17) in cell 39 at location (45.020077 21.815745 0)
    max(U) = (0.0038870648 3.1227142 1.2763515e-16) in cell 282 at location (54.136986 4.0046481 0)

Time = 49.85

Courant Number mean: 0.048129316 max: 0.41202032
smoothSolver:  Solving for Ux, Initial residual = 0.04242298, Final residual = 8.9450017e-10, No Iterations 3
smoothSolver:  Solving for Uy, Initial residual = 0.024926931, Final residual = 2.0196138e-10, No Iterations 3
DICPCG:  Solving for p, Initial residual = 0.023531819, Final residual = 0.00019972898, No Iterations 63
DICPCG:  Solving for p, Initial residual = 0.31996103, Final residual = 0.0031573427, No Iterations 46
DICPCG:  Solving for p, Initial residual = 0.04182652, Final residual = 0.00034506119, No Iterations 57
DICPCG:  Solving for p, Initial residual = 0.0060777846, Final residual = 5.3559996e-05, No Iterations 50
time step continuity errors : sum local = 7.4769014e-08, global = 1.7184721e-09, cumulative = -2.3564826e-07
DICPCG:  Solving for p, Initial residual = 0.033176846, Final residual = 0.00027295333, No Iterations 65
DICPCG:  Solving for p, Initial residual = 0.095187988, Final residual = 0.00095046869, No Iterations 46
DICPCG:  Solving for p, Initial residual = 0.010056397, Final residual = 7.9255504e-05, No Iterations 57
DICPCG:  Solving for p, Initial residual = 0.0014617025, Final residual = 6.4645619e-07, No Iterations 65
time step continuity errors : sum local = 3.8227714e-09, global = 3.1176631e-11, cumulative = -2.3561708e-07
ExecutionTime = 56.77 s  ClockTime = 63 s

fieldMinMax minmaxdomain write:
    min(p) = 0 in cell 2 at location (49 64 0)
    max(p) = 122.84864 in cell 8 at location (0.57735027 9 0)
    min(U) = (-1.2808144 -1.7600503 -6.9284641e-17) in cell 39 at location (45.020077 21.815745 0)
    max(U) = (0.0050780534 3.1228008 1.3098712e-16) in cell 282 at location (54.136986 4.0046481 0)

Time = 49.9

Courant Number mean: 0.047325334 max: 0.41154328
smoothSolver:  Solving for Ux, Initial residual = 0.045315464, Final residual = 9.5103312e-10, No Iterations 3
smoothSolver:  Solving for Uy, Initial residual = 0.025078792, Final residual = 2.0357204e-10, No Iterations 3
DICPCG:  Solving for p, Initial residual = 0.021218464, Final residual = 0.00011406337, No Iterations 64
DICPCG:  Solving for p, Initial residual = 0.31832977, Final residual = 0.0023224813, No Iterations 47
DICPCG:  Solving for p, Initial residual = 0.041079903, Final residual = 0.00034682595, No Iterations 57
DICPCG:  Solving for p, Initial residual = 0.0057959387, Final residual = 4.776311e-05, No Iterations 49
time step continuity errors : sum local = 6.9564204e-08, global = 1.5860465e-09, cumulative = -2.3403103e-07
DICPCG:  Solving for p, Initial residual = 0.032504738, Final residual = 0.00026915979, No Iterations 65
DICPCG:  Solving for p, Initial residual = 0.094943172, Final residual = 0.00094784352, No Iterations 46
DICPCG:  Solving for p, Initial residual = 0.010065053, Final residual = 7.7504869e-05, No Iterations 57
DICPCG:  Solving for p, Initial residual = 0.0014627376, Final residual = 6.4915088e-07, No Iterations 65
time step continuity errors : sum local = 3.9175109e-09, global = 3.2004732e-11, cumulative = -2.3399903e-07
ExecutionTime = 56.82 s  ClockTime = 63 s

fieldMinMax minmaxdomain write:
    min(p) = 0 in cell 2 at location (49 64 0)
    max(p) = 125.48138 in cell 8 at location (0.57735027 9 0)
    min(U) = (-1.2347928 -1.6946879 -7.1214139e-17) in cell 39 at location (45.020077 21.815745 0)
    max(U) = (0.0062130246 3.1228363 1.3422754e-16) in cell 282 at location (54.136986 4.0046481 0)

Time = 49.95

Courant Number mean: 0.046651951 max: 0.41100164
smoothSolver:  Solving for Ux, Initial residual = 0.048259322, Final residual = 1.007471e-09, No Iterations 3
smoothSolver:  Solving for Uy, Initial residual = 0.025264539, Final residual = 2.0817366e-10, No Iterations 3
DICPCG:  Solving for p, Initial residual = 0.02447532, Final residual = 0.00020029952, No Iterations 63
DICPCG:  Solving for p, Initial residual = 0.32276041, Final residual = 0.0023416669, No Iterations 47
DICPCG:  Solving for p, Initial residual = 0.041582413, Final residual = 0.00029541056, No Iterations 55
DICPCG:  Solving for p, Initial residual = 0.0059063451, Final residual = 5.8109533e-05, No Iterations 44
time step continuity errors : sum local = 8.528822e-08, global = -2.2231729e-09, cumulative = -2.362222e-07
DICPCG:  Solving for p, Initial residual = 0.032785988, Final residual = 0.00027348361, No Iterations 65
DICPCG:  Solving for p, Initial residual = 0.094914805, Final residual = 0.00094664454, No Iterations 46
DICPCG:  Solving for p, Initial residual = 0.010080868, Final residual = 7.4735013e-05, No Iterations 57
DICPCG:  Solving for p, Initial residual = 0.0014639411, Final residual = 6.4999022e-07, No Iterations 65
time step continuity errors : sum local = 3.9892082e-09, global = 3.2330848e-11, cumulative = -2.3618987e-07
ExecutionTime = 56.88 s  ClockTime = 63 s

fieldMinMax minmaxdomain write:
    min(p) = 0 in cell 2 at location (49 64 0)
    max(p) = 128.30766 in cell 8 at location (0.57735027 9 0)
    min(U) = (-1.1880428 -1.6283495 -7.3283204e-17) in cell 39 at location (45.020077 21.815745 0)
    max(U) = (0.33032165 0.018406502 1.4762808e-16) in cell 330 at location (3.3485737 9 0)

Time = 50

Courant Number mean: 0.046128842 max: 0.41037647
smoothSolver:  Solving for Ux, Initial residual = 0.051649029, Final residual = 1.0565441e-09, No Iterations 3
smoothSolver:  Solving for Uy, Initial residual = 0.025413758, Final residual = 2.0696173e-10, No Iterations 3
DICPCG:  Solving for p, Initial residual = 0.023382621, Final residual = 0.00019725216, No Iterations 63
DICPCG:  Solving for p, Initial residual = 0.31971311, Final residual = 0.0031675472, No Iterations 46
DICPCG:  Solving for p, Initial residual = 0.040820119, Final residual = 0.00030849117, No Iterations 56
DICPCG:  Solving for p, Initial residual = 0.0059580986, Final residual = 5.0788027e-05, No Iterations 49
time step continuity errors : sum local = 7.7220883e-08, global = 1.4646871e-09, cumulative = -2.3472519e-07
DICPCG:  Solving for p, Initial residual = 0.032062295, Final residual = 0.00027149929, No Iterations 65
DICPCG:  Solving for p, Initial residual = 0.094842566, Final residual = 0.00094459756, No Iterations 46
DICPCG:  Solving for p, Initial residual = 0.010088671, Final residual = 9.8310828e-05, No Iterations 56
DICPCG:  Solving for p, Initial residual = 0.0014704358, Final residual = 5.980261e-07, No Iterations 65
time step continuity errors : sum local = 3.7251681e-09, global = 1.5879163e-11, cumulative = -2.3470931e-07
ExecutionTime = 56.93 s  ClockTime = 63 s

fieldMinMax minmaxdomain write:
    min(p) = 0 in cell 2 at location (49 64 0)
    max(p) = 130.41638 in cell 8 at location (0.57735027 9 0)
    min(U) = (-1.1400316 -1.5601913 -7.5033362e-17) in cell 39 at location (45.020077 21.815745 0)
    max(U) = (0.40499161 0.025569676 1.4944746e-16) in cell 330 at location (3.3485737 9 0)

End

