/*---------------------------------------------------------------------------*\
  =========                 |
  \\      /  F ield         | OpenFOAM: The Open Source CFD Toolbox
   \\    /   O peration     | Website:  https://openfoam.org
    \\  /    A nd           | Version:  7
     \\/     M anipulation  |
\*---------------------------------------------------------------------------*/
Build  : 7-7dc73e32f723
Exec   : blockMesh
Date   : Nov 30 2020
Time   : 16:08:49
Host   : "DESKTOP-VSJ4QNK"
PID    : 29735
I/O    : uncollated
Case   : /home/anoldfriend/OpenFOAM/anoldfriend-7/applications/test/incompressible/poiseuilleFlowDrivenByGravity
nProcs : 1
sigFpe : Enabling floating point exception trapping (FOAM_SIGFPE).
fileModificationChecking : Monitoring run-time modified files using timeStampMaster (fileModificationSkew 10)
allowSystemOperations : Allowing user-supplied system call operations

// * * * * * * * * * * * * * * * * * * * * * * * * * * * * * * * * * * * * * //
Create time

Creating block mesh from
    "/home/anoldfriend/OpenFOAM/anoldfriend-7/applications/test/incompressible/poiseuilleFlowDrivenByGravity/system/blockMeshDict"
Creating block edges
No non-planar block faces defined
Creating topology blocks
Creating topology patches

Creating block mesh topology

Check topology

	Basic statistics
		Number of internal faces : 0
		Number of boundary faces : 6
		Number of defined boundary faces : 6
		Number of undefined boundary faces : 0
	Checking patch -> block consistency

Creating block offsets
Creating merge list .

Creating polyMesh from blockMesh
Creating patches
Creating cells
Creating points with scale 0.1
    Block 0 cell size :
        i : 0.005 .. 0.005
        j : 0.00172925 .. 0.00172925
        k : 0.01

Detected cyclic patches; ordering boundary faces

Writing polyMesh
----------------
Mesh Information
----------------
  boundingBox: (0 0 0) (1 0.1 0.01)
  nPoints: 16482
  nCells: 8000
  nFaces: 32240
  nInternalFaces: 15760
----------------
Patches
----------------
  patch 0 (start: 15760 size: 40) name: velocity-inlet
  patch 1 (start: 15800 size: 40) name: velocity-outlet
  patch 2 (start: 15840 size: 400) name: fixedWalls
  patch 3 (start: 16240 size: 16000) name: frontAndBack

End

/*---------------------------------------------------------------------------*\
  =========                 |
  \\      /  F ield         | OpenFOAM: The Open Source CFD Toolbox
   \\    /   O peration     | Website:  https://openfoam.org
    \\  /    A nd           | Version:  7
     \\/     M anipulation  |
\*---------------------------------------------------------------------------*/
Build  : 7-7dc73e32f723
Exec   : checkMesh
Date   : Nov 30 2020
Time   : 16:08:49
Host   : "DESKTOP-VSJ4QNK"
PID    : 29737
I/O    : uncollated
Case   : /home/anoldfriend/OpenFOAM/anoldfriend-7/applications/test/incompressible/poiseuilleFlowDrivenByGravity
nProcs : 1
sigFpe : Enabling floating point exception trapping (FOAM_SIGFPE).
fileModificationChecking : Monitoring run-time modified files using timeStampMaster (fileModificationSkew 10)
allowSystemOperations : Allowing user-supplied system call operations

// * * * * * * * * * * * * * * * * * * * * * * * * * * * * * * * * * * * * * //
Create time

Create polyMesh for time = 0

Time = 0

Mesh stats
    points:           16482
    internal points:  0
    faces:            32240
    internal faces:   15760
    cells:            8000
    faces per cell:   6
    boundary patches: 4
    point zones:      0
    face zones:       0
    cell zones:       0

Overall number of cells of each type:
    hexahedra:     8000
    prisms:        0
    wedges:        0
    pyramids:      0
    tet wedges:    0
    tetrahedra:    0
    polyhedra:     0

Checking topology...
    Boundary definition OK.
    Cell to face addressing OK.
    Point usage OK.
    Upper triangular ordering OK.
    Face vertices OK.
    Number of regions: 1 (OK).

Checking patch topology for multiply connected surfaces...
    Patch               Faces    Points   Surface topology                  
    velocity-inlet      40       82       ok (non-closed singly connected)  
    velocity-outlet     40       82       ok (non-closed singly connected)  
    fixedWalls          400      804      ok (non-closed singly connected)  
    frontAndBack        16000    16482    ok (non-closed singly connected)  

Checking geometry...
    Overall domain bounding box (0 0 0) (1 0.1 0.01)
    Mesh has 2 geometric (non-empty/wedge) directions (1 1 0)
    Mesh has 2 solution (non-empty) directions (1 1 0)
    All edges aligned with or perpendicular to non-empty directions.
    Boundary openness (-1.1599e-18 3.96808e-19 -1.18775e-16) OK.
    Max cell openness = 1.95931e-16 OK.
    Max aspect ratio = 2.89142 OK.
    Minimum face area = 8.64626e-06. Maximum face area = 5e-05.  Face area magnitudes OK.
    Min volume = 8.64626e-08. Max volume = 1.72925e-07.  Total volume = 0.001.  Cell volumes OK.
    Mesh non-orthogonality Max: 0 average: 0
    Non-orthogonality check OK.
    Face pyramids OK.
    Max skewness = 2.22045e-13 OK.
    Coupled point location match (average 0) OK.

Mesh OK.

End

/*---------------------------------------------------------------------------*\
  =========                 |
  \\      /  F ield         | OpenFOAM: The Open Source CFD Toolbox
   \\    /   O peration     | Website:  https://openfoam.org
    \\  /    A nd           | Version:  7
     \\/     M anipulation  |
\*---------------------------------------------------------------------------*/
Build  : 7-7dc73e32f723
Exec   : /home/anoldfriend/OpenFOAM/anoldfriend-7/platforms/linux64GccDPInt32Opt/bin/icoGravityFoam
Date   : Nov 30 2020
Time   : 16:08:50
Host   : "DESKTOP-VSJ4QNK"
PID    : 29739
I/O    : uncollated
Case   : /home/anoldfriend/OpenFOAM/anoldfriend-7/applications/test/incompressible/poiseuilleFlowDrivenByGravity
nProcs : 1
sigFpe : Enabling floating point exception trapping (FOAM_SIGFPE).
fileModificationChecking : Monitoring run-time modified files using timeStampMaster (fileModificationSkew 10)
allowSystemOperations : Allowing user-supplied system call operations

// * * * * * * * * * * * * * * * * * * * * * * * * * * * * * * * * * * * * * //
Create time

Create mesh for time = 0

Reading transportProperties

Reading field p

Reading field U


Reading g
Reading/calculating face flux field phi


Starting time loop

Reading set description:
    line

Time = 0.001

Courant Number mean: 0 max: 0
smoothSolver:  Solving for Ux, Initial residual = 1, Final residual = 7.3557e-07, No Iterations 19
smoothSolver:  Solving for Uy, Initial residual = 0, Final residual = 0, No Iterations 0
DICPCG:  Solving for p, Initial residual = 1, Final residual = 0.0453253, No Iterations 61
time step continuity errors : sum local = 9.29975e-13, global = 8.9769e-22, cumulative = 8.9769e-22
DICPCG:  Solving for p, Initial residual = 0.798118, Final residual = 7.6965e-07, No Iterations 159
time step continuity errors : sum local = 1.64437e-17, global = -1.02308e-23, cumulative = 8.87459e-22
ExecutionTime = 0.34 s  ClockTime = 0 s

Time = 0.002

Courant Number mean: 0.00187815 max: 0.002
smoothSolver:  Solving for Ux, Initial residual = 0.625569, Final residual = 9.03282e-07, No Iterations 18
smoothSolver:  Solving for Uy, Initial residual = 0.157347, Final residual = 6.9567e-07, No Iterations 17
DICPCG:  Solving for p, Initial residual = 0.85009, Final residual = 0.034546, No Iterations 61
time step continuity errors : sum local = 1.16588e-12, global = -2.2866e-21, cumulative = -1.39914e-21
DICPCG:  Solving for p, Initial residual = 0.797318, Final residual = 7.37955e-07, No Iterations 159
time step continuity errors : sum local = 2.45029e-17, global = 3.41861e-21, cumulative = 2.01947e-21
ExecutionTime = 0.4 s  ClockTime = 0 s

Time = 0.003

Courant Number mean: 0.00369112 max: 0.00399999
smoothSolver:  Solving for Ux, Initial residual = 0.428684, Final residual = 5.94499e-07, No Iterations 18
smoothSolver:  Solving for Uy, Initial residual = 0.072459, Final residual = 5.45086e-07, No Iterations 16
DICPCG:  Solving for p, Initial residual = 0.787073, Final residual = 0.0384242, No Iterations 61
time step continuity errors : sum local = 1.34433e-12, global = 1.23128e-21, cumulative = 3.25075e-21
DICPCG:  Solving for p, Initial residual = 0.803261, Final residual = 7.33299e-07, No Iterations 159
time step continuity errors : sum local = 2.07489e-17, global = -7.58983e-22, cumulative = 2.49176e-21
ExecutionTime = 0.46 s  ClockTime = 0 s

Time = 0.004

Courant Number mean: 0.00545602 max: 0.00599996
smoothSolver:  Solving for Ux, Initial residual = 0.316639, Final residual = 8.52841e-07, No Iterations 17
smoothSolver:  Solving for Uy, Initial residual = 0.0910093, Final residual = 9.65712e-07, No Iterations 16
DICPCG:  Solving for p, Initial residual = 0.876411, Final residual = 0.0368683, No Iterations 61
time step continuity errors : sum local = 2.26989e-12, global = 3.77492e-21, cumulative = 6.26668e-21
DICPCG:  Solving for p, Initial residual = 0.789999, Final residual = 7.57356e-07, No Iterations 159
time step continuity errors : sum local = 4.39017e-17, global = 7.35687e-21, cumulative = 1.36235e-20
ExecutionTime = 0.52 s  ClockTime = 0 s

Time = 0.005

Courant Number mean: 0.00718109 max: 0.00799986
smoothSolver:  Solving for Ux, Initial residual = 0.246085, Final residual = 6.39361e-07, No Iterations 17
smoothSolver:  Solving for Uy, Initial residual = 0.0729523, Final residual = 6.96246e-07, No Iterations 16
DICPCG:  Solving for p, Initial residual = 0.773954, Final residual = 0.0380132, No Iterations 62
time step continuity errors : sum local = 2.62621e-12, global = 4.86478e-21, cumulative = 1.84883e-20
DICPCG:  Solving for p, Initial residual = 0.794089, Final residual = 7.20169e-07, No Iterations 159
time step continuity errors : sum local = 3.49002e-17, global = -2.65526e-21, cumulative = 1.58331e-20
ExecutionTime = 0.58 s  ClockTime = 0 s

Time = 0.006

Courant Number mean: 0.0088714 max: 0.0099996
smoothSolver:  Solving for Ux, Initial residual = 0.198924, Final residual = 5.00463e-07, No Iterations 17
smoothSolver:  Solving for Uy, Initial residual = 0.105533, Final residual = 6.11685e-07, No Iterations 17
DICPCG:  Solving for p, Initial residual = 0.770567, Final residual = 0.0381499, No Iterations 116
time step continuity errors : sum local = 2.0181e-12, global = 1.92455e-21, cumulative = 1.77576e-20
DICPCG:  Solving for p, Initial residual = 0.66764, Final residual = 7.7762e-07, No Iterations 159
time step continuity errors : sum local = 4.64642e-17, global = -4.4083e-21, cumulative = 1.33493e-20
ExecutionTime = 0.66 s  ClockTime = 0 s

Time = 0.007

Courant Number mean: 0.0105304 max: 0.011999
smoothSolver:  Solving for Ux, Initial residual = 0.165178, Final residual = 8.17501e-07, No Iterations 16
smoothSolver:  Solving for Uy, Initial residual = 0.0600163, Final residual = 6.66056e-07, No Iterations 15
DICPCG:  Solving for p, Initial residual = 0.898545, Final residual = 0.0384507, No Iterations 61
time step continuity errors : sum local = 3.95946e-12, global = 1.81222e-20, cumulative = 3.14716e-20
DICPCG:  Solving for p, Initial residual = 0.794481, Final residual = 7.32105e-07, No Iterations 159
time step continuity errors : sum local = 7.00445e-17, global = -1.20825e-21, cumulative = 3.02633e-20
ExecutionTime = 0.72 s  ClockTime = 0 s

Time = 0.008

Courant Number mean: 0.0121609 max: 0.0139979
smoothSolver:  Solving for Ux, Initial residual = 0.14052, Final residual = 6.78368e-07, No Iterations 16
smoothSolver:  Solving for Uy, Initial residual = 0.0682773, Final residual = 6.48606e-07, No Iterations 16
DICPCG:  Solving for p, Initial residual = 0.75868, Final residual = 0.0355761, No Iterations 61
time step continuity errors : sum local = 3.95543e-12, global = 9.29286e-22, cumulative = 3.11926e-20
DICPCG:  Solving for p, Initial residual = 0.783956, Final residual = 7.31318e-07, No Iterations 159
time step continuity errors : sum local = 6.19701e-17, global = 7.38737e-22, cumulative = 3.19313e-20
ExecutionTime = 0.78 s  ClockTime = 0 s

Time = 0.009

Courant Number mean: 0.0137647 max: 0.015996
smoothSolver:  Solving for Ux, Initial residual = 0.121674, Final residual = 5.73835e-07, No Iterations 16
smoothSolver:  Solving for Uy, Initial residual = 0.0764738, Final residual = 7.87027e-07, No Iterations 16
DICPCG:  Solving for p, Initial residual = 0.789689, Final residual = 0.0374686, No Iterations 94
time step continuity errors : sum local = 3.23553e-12, global = -2.19781e-21, cumulative = 2.97335e-20
DICPCG:  Solving for p, Initial residual = 0.652422, Final residual = 6.75691e-07, No Iterations 159
time step continuity errors : sum local = 6.96403e-17, global = 1.86304e-20, cumulative = 4.83639e-20
ExecutionTime = 0.84 s  ClockTime = 0 s

Time = 0.01

Courant Number mean: 0.0153437 max: 0.0179929
smoothSolver:  Solving for Ux, Initial residual = 0.106706, Final residual = 9.99683e-07, No Iterations 15
smoothSolver:  Solving for Uy, Initial residual = 0.0550209, Final residual = 5.6317e-07, No Iterations 15
DICPCG:  Solving for p, Initial residual = 0.889976, Final residual = 0.0344012, No Iterations 61
time step continuity errors : sum local = 5.73391e-12, global = -2.85974e-20, cumulative = 1.97665e-20
DICPCG:  Solving for p, Initial residual = 0.791182, Final residual = 7.16864e-07, No Iterations 159
time step continuity errors : sum local = 1.19097e-16, global = -7.66661e-21, cumulative = 1.20999e-20
ExecutionTime = 0.9 s  ClockTime = 1 s

Time = 0.011

Courant Number mean: 0.0168991 max: 0.019988
smoothSolver:  Solving for Ux, Initial residual = 0.0947832, Final residual = 8.71874e-07, No Iterations 15
smoothSolver:  Solving for Uy, Initial residual = 0.0510669, Final residual = 7.21374e-07, No Iterations 15
DICPCG:  Solving for p, Initial residual = 0.766276, Final residual = 0.0278228, No Iterations 61
time step continuity errors : sum local = 4.52674e-12, global = 1.94699e-20, cumulative = 3.15698e-20
DICPCG:  Solving for p, Initial residual = 0.792909, Final residual = 6.87758e-07, No Iterations 159
time step continuity errors : sum local = 1.00203e-16, global = 5.06825e-22, cumulative = 3.20767e-20
ExecutionTime = 0.96 s  ClockTime = 1 s

Time = 0.012

Courant Number mean: 0.0184322 max: 0.0219809
smoothSolver:  Solving for Ux, Initial residual = 0.0850828, Final residual = 7.69255e-07, No Iterations 15
smoothSolver:  Solving for Uy, Initial residual = 0.0502975, Final residual = 6.60011e-07, No Iterations 15
DICPCG:  Solving for p, Initial residual = 0.807769, Final residual = 0.0369791, No Iterations 61
time step continuity errors : sum local = 6.54775e-12, global = 8.26654e-21, cumulative = 4.03432e-20
DICPCG:  Solving for p, Initial residual = 0.793274, Final residual = 6.72495e-07, No Iterations 159
time step continuity errors : sum local = 9.7658e-17, global = 1.94269e-21, cumulative = 4.22859e-20
ExecutionTime = 1.02 s  ClockTime = 1 s

Time = 0.013

Courant Number mean: 0.019944 max: 0.023971
smoothSolver:  Solving for Ux, Initial residual = 0.0769717, Final residual = 6.85228e-07, No Iterations 15
smoothSolver:  Solving for Uy, Initial residual = 0.0643995, Final residual = 6.09333e-07, No Iterations 16
DICPCG:  Solving for p, Initial residual = 0.773706, Final residual = 0.0359466, No Iterations 62
time step continuity errors : sum local = 7.50094e-12, global = -1.21866e-20, cumulative = 3.00993e-20
DICPCG:  Solving for p, Initial residual = 0.766545, Final residual = 7.31846e-07, No Iterations 159
time step continuity errors : sum local = 1.06409e-16, global = -1.48377e-20, cumulative = 1.52616e-20
ExecutionTime = 1.08 s  ClockTime = 1 s

Time = 0.014

Courant Number mean: 0.0214354 max: 0.0259575
smoothSolver:  Solving for Ux, Initial residual = 0.0701253, Final residual = 6.15645e-07, No Iterations 15
smoothSolver:  Solving for Uy, Initial residual = 0.0811041, Final residual = 8.493e-07, No Iterations 16
DICPCG:  Solving for p, Initial residual = 0.77412, Final residual = 0.0352782, No Iterations 107
time step continuity errors : sum local = 5.47084e-12, global = -3.59202e-21, cumulative = 1.16696e-20
DICPCG:  Solving for p, Initial residual = 0.614439, Final residual = 7.38827e-07, No Iterations 159
time step continuity errors : sum local = 1.39056e-16, global = 2.3208e-20, cumulative = 3.48775e-20
ExecutionTime = 1.15 s  ClockTime = 1 s

Time = 0.015

Courant Number mean: 0.0229072 max: 0.0279398
smoothSolver:  Solving for Ux, Initial residual = 0.0642881, Final residual = 5.57003e-07, No Iterations 15
smoothSolver:  Solving for Uy, Initial residual = 0.0537226, Final residual = 5.15278e-07, No Iterations 15
DICPCG:  Solving for p, Initial residual = 0.792682, Final residual = 0.0274808, No Iterations 61
time step continuity errors : sum local = 3.85916e-12, global = -1.10099e-20, cumulative = 2.38676e-20
DICPCG:  Solving for p, Initial residual = 0.78688, Final residual = 9.48788e-07, No Iterations 158
time step continuity errors : sum local = 1.28569e-16, global = -5.67547e-21, cumulative = 1.81921e-20
ExecutionTime = 1.21 s  ClockTime = 1 s

Time = 0.016

Courant Number mean: 0.02436 max: 0.0299171
smoothSolver:  Solving for Ux, Initial residual = 0.0592473, Final residual = 5.07402e-07, No Iterations 15
smoothSolver:  Solving for Uy, Initial residual = 0.0496424, Final residual = 9.28579e-07, No Iterations 14
DICPCG:  Solving for p, Initial residual = 0.804144, Final residual = 0.0307832, No Iterations 61
time step continuity errors : sum local = 4.67112e-12, global = -2.13848e-20, cumulative = -3.19262e-21
DICPCG:  Solving for p, Initial residual = 0.795347, Final residual = 6.55935e-07, No Iterations 159
time step continuity errors : sum local = 8.71089e-17, global = 1.08177e-20, cumulative = 7.62504e-21
ExecutionTime = 1.27 s  ClockTime = 1 s

Time = 0.017

Courant Number mean: 0.0257945 max: 0.0318888
smoothSolver:  Solving for Ux, Initial residual = 0.054877, Final residual = 9.45348e-07, No Iterations 14
smoothSolver:  Solving for Uy, Initial residual = 0.0522008, Final residual = 6.62334e-07, No Iterations 15
DICPCG:  Solving for p, Initial residual = 0.886724, Final residual = 0.0320891, No Iterations 61
time step continuity errors : sum local = 8.58416e-12, global = -8.66792e-21, cumulative = -1.04287e-21
DICPCG:  Solving for p, Initial residual = 0.789586, Final residual = 6.46911e-07, No Iterations 159
time step continuity errors : sum local = 1.78215e-16, global = 2.67597e-20, cumulative = 2.57168e-20
ExecutionTime = 1.33 s  ClockTime = 1 s

Time = 0.018

Courant Number mean: 0.0272113 max: 0.0338541
smoothSolver:  Solving for Ux, Initial residual = 0.051055, Final residual = 8.71171e-07, No Iterations 14
smoothSolver:  Solving for Uy, Initial residual = 0.0476958, Final residual = 5.11522e-07, No Iterations 15
DICPCG:  Solving for p, Initial residual = 0.787194, Final residual = 0.0299908, No Iterations 61
time step continuity errors : sum local = 8.70033e-12, global = 1.26803e-20, cumulative = 3.83971e-20
DICPCG:  Solving for p, Initial residual = 0.795627, Final residual = 6.42391e-07, No Iterations 159
time step continuity errors : sum local = 1.54979e-16, global = -8.13187e-21, cumulative = 3.02652e-20
ExecutionTime = 1.39 s  ClockTime = 1 s

Time = 0.019

Courant Number mean: 0.0286109 max: 0.0358123
smoothSolver:  Solving for Ux, Initial residual = 0.047678, Final residual = 8.05796e-07, No Iterations 14
smoothSolver:  Solving for Uy, Initial residual = 0.0549904, Final residual = 8.55008e-07, No Iterations 15
DICPCG:  Solving for p, Initial residual = 0.789815, Final residual = 0.033346, No Iterations 61
time step continuity errors : sum local = 1.04596e-11, global = -1.43502e-20, cumulative = 1.59151e-20
DICPCG:  Solving for p, Initial residual = 0.778106, Final residual = 6.79757e-07, No Iterations 159
time step continuity errors : sum local = 1.69735e-16, global = -1.75794e-20, cumulative = -1.66432e-21
ExecutionTime = 1.45 s  ClockTime = 1 s

Time = 0.02

Courant Number mean: 0.0299938 max: 0.0377628
smoothSolver:  Solving for Ux, Initial residual = 0.0446538, Final residual = 7.47869e-07, No Iterations 14
smoothSolver:  Solving for Uy, Initial residual = 0.0624669, Final residual = 5.44374e-07, No Iterations 16
DICPCG:  Solving for p, Initial residual = 0.787918, Final residual = 0.0393799, No Iterations 93
time step continuity errors : sum local = 9.92269e-12, global = 1.40961e-20, cumulative = 1.24318e-20
DICPCG:  Solving for p, Initial residual = 0.670196, Final residual = 9.41471e-07, No Iterations 158
time step continuity errors : sum local = 2.75424e-16, global = -2.83132e-21, cumulative = 9.60045e-21
ExecutionTime = 1.51 s  ClockTime = 1 s

Time = 0.021

Courant Number mean: 0.0313604 max: 0.0397048
smoothSolver:  Solving for Ux, Initial residual = 0.0419565, Final residual = 6.96173e-07, No Iterations 14
smoothSolver:  Solving for Uy, Initial residual = 0.0543338, Final residual = 9.77021e-07, No Iterations 14
DICPCG:  Solving for p, Initial residual = 0.797069, Final residual = 0.0266595, No Iterations 61
time step continuity errors : sum local = 6.33071e-12, global = 3.95735e-21, cumulative = 1.35578e-20
DICPCG:  Solving for p, Initial residual = 0.784734, Final residual = 9.64163e-07, No Iterations 158
time step continuity errors : sum local = 2.26785e-16, global = -2.55003e-21, cumulative = 1.10078e-20
ExecutionTime = 1.57 s  ClockTime = 1 s

Time = 0.022

Courant Number mean: 0.0327112 max: 0.0416377
smoothSolver:  Solving for Ux, Initial residual = 0.0395371, Final residual = 6.51105e-07, No Iterations 14
smoothSolver:  Solving for Uy, Initial residual = 0.0482797, Final residual = 8.11784e-07, No Iterations 14
DICPCG:  Solving for p, Initial residual = 0.796082, Final residual = 0.0275309, No Iterations 61
time step continuity errors : sum local = 6.71944e-12, global = 1.4271e-20, cumulative = 2.52788e-20
DICPCG:  Solving for p, Initial residual = 0.789244, Final residual = 6.976e-07, No Iterations 159
time step continuity errors : sum local = 1.60888e-16, global = -4.40177e-21, cumulative = 2.0877e-20
ExecutionTime = 1.62 s  ClockTime = 1 s

Time = 0.023

Courant Number mean: 0.0340464 max: 0.043561
smoothSolver:  Solving for Ux, Initial residual = 0.0373558, Final residual = 6.11146e-07, No Iterations 14
smoothSolver:  Solving for Uy, Initial residual = 0.0489649, Final residual = 9.41895e-07, No Iterations 14
DICPCG:  Solving for p, Initial residual = 0.789914, Final residual = 0.0270487, No Iterations 61
time step continuity errors : sum local = 6.37174e-12, global = -1.1543e-20, cumulative = 9.33399e-21
DICPCG:  Solving for p, Initial residual = 0.786122, Final residual = 6.98045e-07, No Iterations 159
time step continuity errors : sum local = 1.58481e-16, global = -2.06752e-20, cumulative = -1.13412e-20
ExecutionTime = 1.68 s  ClockTime = 1 s

Time = 0.024

Courant Number mean: 0.0353666 max: 0.0454741
smoothSolver:  Solving for Ux, Initial residual = 0.0353799, Final residual = 5.75265e-07, No Iterations 14
smoothSolver:  Solving for Uy, Initial residual = 0.0487242, Final residual = 8.62254e-07, No Iterations 14
DICPCG:  Solving for p, Initial residual = 0.803768, Final residual = 0.0298964, No Iterations 61
time step continuity errors : sum local = 7.69763e-12, global = -1.6419e-20, cumulative = -2.77603e-20
DICPCG:  Solving for p, Initial residual = 0.789604, Final residual = 6.75624e-07, No Iterations 159
time step continuity errors : sum local = 1.5081e-16, global = 6.90303e-21, cumulative = -2.08572e-20
ExecutionTime = 1.74 s  ClockTime = 1 s

Time = 0.025

Courant Number mean: 0.0366719 max: 0.0473764
smoothSolver:  Solving for Ux, Initial residual = 0.0335823, Final residual = 5.42805e-07, No Iterations 14
smoothSolver:  Solving for Uy, Initial residual = 0.0515786, Final residual = 6.21406e-07, No Iterations 15
DICPCG:  Solving for p, Initial residual = 0.78339, Final residual = 0.0310854, No Iterations 61
time step continuity errors : sum local = 8.68419e-12, global = 2.14189e-20, cumulative = 5.61664e-22
DICPCG:  Solving for p, Initial residual = 0.780194, Final residual = 7.08718e-07, No Iterations 159
time step continuity errors : sum local = 1.58947e-16, global = -1.77769e-20, cumulative = -1.72153e-20
ExecutionTime = 1.8 s  ClockTime = 1 s

Time = 0.026

Courant Number mean: 0.0379627 max: 0.0492676
smoothSolver:  Solving for Ux, Initial residual = 0.0319405, Final residual = 5.13434e-07, No Iterations 14
smoothSolver:  Solving for Uy, Initial residual = 0.0552896, Final residual = 7.62723e-07, No Iterations 15
DICPCG:  Solving for p, Initial residual = 0.790058, Final residual = 0.0392245, No Iterations 92
time step continuity errors : sum local = 8.83739e-12, global = 2.00708e-20, cumulative = 2.85556e-21
DICPCG:  Solving for p, Initial residual = 0.677593, Final residual = 9.70291e-07, No Iterations 158
time step continuity errors : sum local = 2.51401e-16, global = -1.08233e-20, cumulative = -7.96771e-21
ExecutionTime = 1.86 s  ClockTime = 1 s

Time = 0.027

Courant Number mean: 0.0392393 max: 0.0511471
smoothSolver:  Solving for Ux, Initial residual = 0.030429, Final residual = 9.93717e-07, No Iterations 13
smoothSolver:  Solving for Uy, Initial residual = 0.0524645, Final residual = 9.02395e-07, No Iterations 14
DICPCG:  Solving for p, Initial residual = 0.89244, Final residual = 0.0311499, No Iterations 61
time step continuity errors : sum local = 1.40873e-11, global = 1.37818e-20, cumulative = 5.81408e-21
DICPCG:  Solving for p, Initial residual = 0.788295, Final residual = 9.28128e-07, No Iterations 158
time step continuity errors : sum local = 4.19905e-16, global = 2.89905e-20, cumulative = 3.48045e-20
ExecutionTime = 1.92 s  ClockTime = 2 s

Time = 0.028

Courant Number mean: 0.0405019 max: 0.0530146
smoothSolver:  Solving for Ux, Initial residual = 0.0290349, Final residual = 9.45295e-07, No Iterations 13
smoothSolver:  Solving for Uy, Initial residual = 0.0466791, Final residual = 5.07827e-07, No Iterations 15
DICPCG:  Solving for p, Initial residual = 0.775817, Final residual = 0.0252362, No Iterations 61
time step continuity errors : sum local = 1.1451e-11, global = -3.46891e-20, cumulative = 1.15404e-22
DICPCG:  Solving for p, Initial residual = 0.787088, Final residual = 6.56993e-07, No Iterations 159
time step continuity errors : sum local = 2.67897e-16, global = -4.87533e-20, cumulative = -4.86379e-20
ExecutionTime = 1.98 s  ClockTime = 2 s

Time = 0.029

Courant Number mean: 0.0417509 max: 0.0548698
smoothSolver:  Solving for Ux, Initial residual = 0.0277493, Final residual = 8.99286e-07, No Iterations 13
smoothSolver:  Solving for Uy, Initial residual = 0.0495561, Final residual = 5.15287e-07, No Iterations 15
DICPCG:  Solving for p, Initial residual = 0.809845, Final residual = 0.032231, No Iterations 61
time step continuity errors : sum local = 1.61566e-11, global = -3.44725e-20, cumulative = -8.31104e-20
DICPCG:  Solving for p, Initial residual = 0.78687, Final residual = 9.89169e-07, No Iterations 158
time step continuity errors : sum local = 4.06395e-16, global = 2.49172e-20, cumulative = -5.81932e-20
ExecutionTime = 2.04 s  ClockTime = 2 s

Time = 0.03

Courant Number mean: 0.0429865 max: 0.0567122
smoothSolver:  Solving for Ux, Initial residual = 0.0265602, Final residual = 8.57512e-07, No Iterations 13
smoothSolver:  Solving for Uy, Initial residual = 0.0574308, Final residual = 9.29717e-07, No Iterations 15
DICPCG:  Solving for p, Initial residual = 0.777113, Final residual = 0.0387829, No Iterations 61
time step continuity errors : sum local = 2.15001e-11, global = -4.81772e-20, cumulative = -1.0637e-19
DICPCG:  Solving for p, Initial residual = 0.768912, Final residual = 6.52507e-07, No Iterations 159
time step continuity errors : sum local = 2.70905e-16, global = 1.63915e-20, cumulative = -8.9979e-20
ExecutionTime = 2.09 s  ClockTime = 2 s

Time = 0.031

Courant Number mean: 0.0442089 max: 0.0585416
smoothSolver:  Solving for Ux, Initial residual = 0.0254574, Final residual = 8.19742e-07, No Iterations 13
smoothSolver:  Solving for Uy, Initial residual = 0.0713531, Final residual = 6.83176e-07, No Iterations 16
DICPCG:  Solving for p, Initial residual = 0.780093, Final residual = 0.0382298, No Iterations 110
time step continuity errors : sum local = 1.68311e-11, global = -3.48066e-20, cumulative = -1.24786e-19
DICPCG:  Solving for p, Initial residual = 0.632876, Final residual = 7.02248e-07, No Iterations 159
time step continuity errors : sum local = 3.68382e-16, global = -5.60889e-20, cumulative = -1.80874e-19
ExecutionTime = 2.16 s  ClockTime = 2 s

Time = 0.032

Courant Number mean: 0.0454183 max: 0.0603578
smoothSolver:  Solving for Ux, Initial residual = 0.0244275, Final residual = 7.84834e-07, No Iterations 13
smoothSolver:  Solving for Uy, Initial residual = 0.0523562, Final residual = 8.38114e-07, No Iterations 14
DICPCG:  Solving for p, Initial residual = 0.79354, Final residual = 0.0250554, No Iterations 61
time step continuity errors : sum local = 1.00478e-11, global = 1.38063e-20, cumulative = -1.67068e-19
DICPCG:  Solving for p, Initial residual = 0.779057, Final residual = 9.64001e-07, No Iterations 158
time step continuity errors : sum local = 3.8321e-16, global = 1.01513e-20, cumulative = -1.56917e-19
ExecutionTime = 2.22 s  ClockTime = 2 s

Time = 0.033

Courant Number mean: 0.0466149 max: 0.0621604
smoothSolver:  Solving for Ux, Initial residual = 0.023464, Final residual = 7.51221e-07, No Iterations 13
smoothSolver:  Solving for Uy, Initial residual = 0.0485764, Final residual = 7.30953e-07, No Iterations 14
DICPCG:  Solving for p, Initial residual = 0.800786, Final residual = 0.0267684, No Iterations 61
time step continuity errors : sum local = 1.17553e-11, global = -2.28527e-20, cumulative = -1.7977e-19
DICPCG:  Solving for p, Initial residual = 0.785087, Final residual = 9.84591e-07, No Iterations 158
time step continuity errors : sum local = 3.87909e-16, global = -8.84939e-21, cumulative = -1.88619e-19
ExecutionTime = 2.28 s  ClockTime = 2 s

Time = 0.034

Courant Number mean: 0.047799 max: 0.0639494
smoothSolver:  Solving for Ux, Initial residual = 0.0225645, Final residual = 7.19341e-07, No Iterations 13
smoothSolver:  Solving for Uy, Initial residual = 0.0497124, Final residual = 5.09798e-07, No Iterations 15
DICPCG:  Solving for p, Initial residual = 0.787778, Final residual = 0.0264934, No Iterations 61
time step continuity errors : sum local = 1.1736e-11, global = -5.66228e-20, cumulative = -2.45242e-19
DICPCG:  Solving for p, Initial residual = 0.778852, Final residual = 6.43961e-07, No Iterations 159
time step continuity errors : sum local = 2.50162e-16, global = 4.90648e-22, cumulative = -2.44751e-19
ExecutionTime = 2.34 s  ClockTime = 2 s

Time = 0.035

Courant Number mean: 0.0489708 max: 0.0657245
smoothSolver:  Solving for Ux, Initial residual = 0.0217229, Final residual = 6.90136e-07, No Iterations 13
smoothSolver:  Solving for Uy, Initial residual = 0.050633, Final residual = 5.26698e-07, No Iterations 15
DICPCG:  Solving for p, Initial residual = 0.802212, Final residual = 0.0353366, No Iterations 61
time step continuity errors : sum local = 1.75713e-11, global = -4.80308e-20, cumulative = -2.92782e-19
DICPCG:  Solving for p, Initial residual = 0.784072, Final residual = 9.06966e-07, No Iterations 158
time step continuity errors : sum local = 3.52201e-16, global = -2.42995e-20, cumulative = -3.17081e-19
ExecutionTime = 2.4 s  ClockTime = 2 s

Time = 0.036

Courant Number mean: 0.0501304 max: 0.0674856
smoothSolver:  Solving for Ux, Initial residual = 0.0209339, Final residual = 6.63391e-07, No Iterations 13
smoothSolver:  Solving for Uy, Initial residual = 0.0583135, Final residual = 9.33153e-07, No Iterations 15
DICPCG:  Solving for p, Initial residual = 0.777671, Final residual = 0.0325732, No Iterations 110
time step continuity errors : sum local = 1.33592e-11, global = -1.34565e-20, cumulative = -3.30538e-19
DICPCG:  Solving for p, Initial residual = 0.700781, Final residual = 7.00918e-07, No Iterations 159
time step continuity errors : sum local = 3.09734e-16, global = 2.68025e-21, cumulative = -3.27858e-19
ExecutionTime = 2.46 s  ClockTime = 2 s

Time = 0.037

Courant Number mean: 0.0512779 max: 0.0692325
smoothSolver:  Solving for Ux, Initial residual = 0.020193, Final residual = 6.38438e-07, No Iterations 13
smoothSolver:  Solving for Uy, Initial residual = 0.0496171, Final residual = 7.64683e-07, No Iterations 14
DICPCG:  Solving for p, Initial residual = 0.8102, Final residual = 0.0280846, No Iterations 61
time step continuity errors : sum local = 1.25984e-11, global = 7.33636e-21, cumulative = -3.20521e-19
DICPCG:  Solving for p, Initial residual = 0.784242, Final residual = 9.94319e-07, No Iterations 158
time step continuity errors : sum local = 3.76989e-16, global = 3.67665e-20, cumulative = -2.83755e-19
ExecutionTime = 2.52 s  ClockTime = 2 s

Time = 0.038

Courant Number mean: 0.0524137 max: 0.0709652
smoothSolver:  Solving for Ux, Initial residual = 0.0194958, Final residual = 6.13646e-07, No Iterations 13
smoothSolver:  Solving for Uy, Initial residual = 0.0517815, Final residual = 5.99259e-07, No Iterations 15
DICPCG:  Solving for p, Initial residual = 0.78415, Final residual = 0.030962, No Iterations 61
time step continuity errors : sum local = 1.47671e-11, global = -2.486e-20, cumulative = -3.08615e-19
DICPCG:  Solving for p, Initial residual = 0.773734, Final residual = 6.65752e-07, No Iterations 159
time step continuity errors : sum local = 2.49687e-16, global = -9.35632e-21, cumulative = -3.17971e-19
ExecutionTime = 2.58 s  ClockTime = 2 s

Time = 0.039

Courant Number mean: 0.0535378 max: 0.0726836
smoothSolver:  Solving for Ux, Initial residual = 0.0188387, Final residual = 5.90962e-07, No Iterations 13
smoothSolver:  Solving for Uy, Initial residual = 0.0562739, Final residual = 7.68405e-07, No Iterations 15
DICPCG:  Solving for p, Initial residual = 0.78604, Final residual = 0.0387294, No Iterations 105
time step continuity errors : sum local = 1.45858e-11, global = 9.11393e-21, cumulative = -3.08857e-19
DICPCG:  Solving for p, Initial residual = 0.665277, Final residual = 8.51636e-07, No Iterations 158
time step continuity errors : sum local = 3.66673e-16, global = -1.24226e-20, cumulative = -3.2128e-19
ExecutionTime = 2.65 s  ClockTime = 2 s

Time = 0.04

Courant Number mean: 0.0546504 max: 0.0743876
smoothSolver:  Solving for Ux, Initial residual = 0.0182185, Final residual = 5.71153e-07, No Iterations 13
smoothSolver:  Solving for Uy, Initial residual = 0.0519466, Final residual = 8.3107e-07, No Iterations 14
DICPCG:  Solving for p, Initial residual = 0.790988, Final residual = 0.0250666, No Iterations 61
time step continuity errors : sum local = 9.07369e-12, global = -2.1501e-20, cumulative = -3.42781e-19
DICPCG:  Solving for p, Initial residual = 0.779319, Final residual = 9.90068e-07, No Iterations 158
time step continuity errors : sum local = 3.56756e-16, global = 5.73021e-21, cumulative = -3.37051e-19
ExecutionTime = 2.7 s  ClockTime = 2 s

Time = 0.041

Courant Number mean: 0.0557517 max: 0.0760771
smoothSolver:  Solving for Ux, Initial residual = 0.0176321, Final residual = 5.52128e-07, No Iterations 13
smoothSolver:  Solving for Uy, Initial residual = 0.0490053, Final residual = 7.32022e-07, No Iterations 14
DICPCG:  Solving for p, Initial residual = 0.795759, Final residual = 0.025895, No Iterations 61
time step continuity errors : sum local = 1.00001e-11, global = -1.81798e-22, cumulative = -3.37232e-19
DICPCG:  Solving for p, Initial residual = 0.783373, Final residual = 6.85876e-07, No Iterations 159
time step continuity errors : sum local = 2.46315e-16, global = -7.09775e-20, cumulative = -4.0821e-19
ExecutionTime = 2.76 s  ClockTime = 2 s

Time = 0.042

Courant Number mean: 0.0568418 max: 0.0777522
smoothSolver:  Solving for Ux, Initial residual = 0.0170769, Final residual = 5.34014e-07, No Iterations 13
smoothSolver:  Solving for Uy, Initial residual = 0.0493969, Final residual = 8.65452e-07, No Iterations 14
DICPCG:  Solving for p, Initial residual = 0.791411, Final residual = 0.0253174, No Iterations 61
time step continuity errors : sum local = 9.88182e-12, global = -1.37031e-20, cumulative = -4.21913e-19
DICPCG:  Solving for p, Initial residual = 0.77984, Final residual = 9.9576e-07, No Iterations 158
time step continuity errors : sum local = 3.56809e-16, global = -4.84249e-20, cumulative = -4.70338e-19
ExecutionTime = 2.82 s  ClockTime = 2 s

Time = 0.043

Courant Number mean: 0.0579208 max: 0.0794128
smoothSolver:  Solving for Ux, Initial residual = 0.0165505, Final residual = 5.16897e-07, No Iterations 13
smoothSolver:  Solving for Uy, Initial residual = 0.0496515, Final residual = 8.63361e-07, No Iterations 14
DICPCG:  Solving for p, Initial residual = 0.803482, Final residual = 0.0300332, No Iterations 61
time step continuity errors : sum local = 1.29843e-11, global = 1.13709e-20, cumulative = -4.58967e-19
DICPCG:  Solving for p, Initial residual = 0.784966, Final residual = 8.91619e-07, No Iterations 158
time step continuity errors : sum local = 3.16106e-16, global = -2.13461e-20, cumulative = -4.80313e-19
ExecutionTime = 2.88 s  ClockTime = 2 s

Time = 0.044

Courant Number mean: 0.058989 max: 0.0810588
smoothSolver:  Solving for Ux, Initial residual = 0.0160508, Final residual = 5.00139e-07, No Iterations 13
smoothSolver:  Solving for Uy, Initial residual = 0.05266, Final residual = 6.55827e-07, No Iterations 15
DICPCG:  Solving for p, Initial residual = 0.776638, Final residual = 0.0364356, No Iterations 61
time step continuity errors : sum local = 1.70932e-11, global = -5.62817e-20, cumulative = -5.36595e-19
DICPCG:  Solving for p, Initial residual = 0.764411, Final residual = 6.75336e-07, No Iterations 159
time step continuity errors : sum local = 2.38344e-16, global = 3.61934e-20, cumulative = -5.00401e-19
ExecutionTime = 2.93 s  ClockTime = 3 s

Time = 0.045

Courant Number mean: 0.0600464 max: 0.0826904
smoothSolver:  Solving for Ux, Initial residual = 0.0155759, Final residual = 9.96262e-07, No Iterations 12
smoothSolver:  Solving for Uy, Initial residual = 0.0603403, Final residual = 9.2312e-07, No Iterations 15
DICPCG:  Solving for p, Initial residual = 0.882678, Final residual = 0.0354214, No Iterations 62
time step continuity errors : sum local = 3.47876e-11, global = 5.58194e-20, cumulative = -4.44582e-19
DICPCG:  Solving for p, Initial residual = 0.784272, Final residual = 8.31025e-07, No Iterations 158
time step continuity errors : sum local = 6.14132e-16, global = 1.8213e-20, cumulative = -4.26369e-19
ExecutionTime = 2.99 s  ClockTime = 3 s

Time = 0.046

Courant Number mean: 0.0610931 max: 0.0843074
smoothSolver:  Solving for Ux, Initial residual = 0.015124, Final residual = 9.6782e-07, No Iterations 12
smoothSolver:  Solving for Uy, Initial residual = 0.0829303, Final residual = 8.91296e-07, No Iterations 16
DICPCG:  Solving for p, Initial residual = 0.759866, Final residual = 0.0355436, No Iterations 110
time step continuity errors : sum local = 2.71638e-11, global = 1.30385e-20, cumulative = -4.1333e-19
DICPCG:  Solving for p, Initial residual = 0.658293, Final residual = 7.93095e-07, No Iterations 159
time step continuity errors : sum local = 6.77055e-16, global = 1.97324e-20, cumulative = -3.93598e-19
ExecutionTime = 3.06 s  ClockTime = 3 s

Time = 0.047

Courant Number mean: 0.0621293 max: 0.08591
smoothSolver:  Solving for Ux, Initial residual = 0.0146934, Final residual = 9.37914e-07, No Iterations 12
smoothSolver:  Solving for Uy, Initial residual = 0.0513719, Final residual = 7.82965e-07, No Iterations 14
DICPCG:  Solving for p, Initial residual = 0.81734, Final residual = 0.027407, No Iterations 61
time step continuity errors : sum local = 2.2242e-11, global = -2.95176e-20, cumulative = -4.23116e-19
DICPCG:  Solving for p, Initial residual = 0.783574, Final residual = 9.75731e-07, No Iterations 158
time step continuity errors : sum local = 6.61258e-16, global = 2.28702e-20, cumulative = -4.00245e-19
ExecutionTime = 3.12 s  ClockTime = 3 s

Time = 0.048

Courant Number mean: 0.0631551 max: 0.0874982
smoothSolver:  Solving for Ux, Initial residual = 0.0142828, Final residual = 9.10731e-07, No Iterations 12
smoothSolver:  Solving for Uy, Initial residual = 0.053987, Final residual = 7.19541e-07, No Iterations 15
DICPCG:  Solving for p, Initial residual = 0.784898, Final residual = 0.0306914, No Iterations 61
time step continuity errors : sum local = 2.73361e-11, global = 2.78709e-20, cumulative = -3.72375e-19
DICPCG:  Solving for p, Initial residual = 0.772306, Final residual = 9.37547e-07, No Iterations 158
time step continuity errors : sum local = 6.37011e-16, global = -3.18681e-20, cumulative = -4.04243e-19
ExecutionTime = 3.17 s  ClockTime = 3 s

Time = 0.049

Courant Number mean: 0.0641707 max: 0.089072
smoothSolver:  Solving for Ux, Initial residual = 0.0138908, Final residual = 8.84771e-07, No Iterations 12
smoothSolver:  Solving for Uy, Initial residual = 0.0624972, Final residual = 5.23856e-07, No Iterations 16
DICPCG:  Solving for p, Initial residual = 0.788358, Final residual = 0.038927, No Iterations 93
time step continuity errors : sum local = 2.70758e-11, global = -4.10676e-20, cumulative = -4.4531e-19
DICPCG:  Solving for p, Initial residual = 0.665771, Final residual = 8.84748e-07, No Iterations 158
time step continuity errors : sum local = 7.10147e-16, global = -8.10937e-21, cumulative = -4.5342e-19
ExecutionTime = 3.24 s  ClockTime = 3 s

Time = 0.05

Courant Number mean: 0.0651762 max: 0.0906314
smoothSolver:  Solving for Ux, Initial residual = 0.0135162, Final residual = 8.60309e-07, No Iterations 12
smoothSolver:  Solving for Uy, Initial residual = 0.0532858, Final residual = 8.22074e-07, No Iterations 14
DICPCG:  Solving for p, Initial residual = 0.795532, Final residual = 0.0234014, No Iterations 61
time step continuity errors : sum local = 1.57125e-11, global = 1.5919e-20, cumulative = -4.37501e-19
DICPCG:  Solving for p, Initial residual = 0.778285, Final residual = 8.8458e-07, No Iterations 158
time step continuity errors : sum local = 5.75976e-16, global = 5.05312e-20, cumulative = -3.86969e-19
ExecutionTime = 3.29 s  ClockTime = 3 s

Time = 0.051

Courant Number mean: 0.0661716 max: 0.0921766
smoothSolver:  Solving for Ux, Initial residual = 0.0131578, Final residual = 8.37823e-07, No Iterations 12
smoothSolver:  Solving for Uy, Initial residual = 0.0497956, Final residual = 7.01287e-07, No Iterations 14
DICPCG:  Solving for p, Initial residual = 0.802756, Final residual = 0.0248757, No Iterations 61
time step continuity errors : sum local = 1.77137e-11, global = -1.70925e-20, cumulative = -4.04062e-19
DICPCG:  Solving for p, Initial residual = 0.7807, Final residual = 8.64809e-07, No Iterations 158
time step continuity errors : sum local = 5.57397e-16, global = 1.85834e-20, cumulative = -3.85479e-19
ExecutionTime = 3.35 s  ClockTime = 3 s

Time = 0.052

Courant Number mean: 0.0671571 max: 0.0937076
smoothSolver:  Solving for Ux, Initial residual = 0.0128147, Final residual = 8.15601e-07, No Iterations 12
smoothSolver:  Solving for Uy, Initial residual = 0.0505564, Final residual = 9.48563e-07, No Iterations 14
DICPCG:  Solving for p, Initial residual = 0.791685, Final residual = 0.0244511, No Iterations 61
time step continuity errors : sum local = 1.8581e-11, global = 5.2249e-20, cumulative = -3.33229e-19
DICPCG:  Solving for p, Initial residual = 0.776398, Final residual = 9.50094e-07, No Iterations 158
time step continuity errors : sum local = 6.21977e-16, global = 7.43976e-20, cumulative = -2.58832e-19
ExecutionTime = 3.41 s  ClockTime = 3 s

Time = 0.053

Courant Number mean: 0.0681328 max: 0.0952244
smoothSolver:  Solving for Ux, Initial residual = 0.012486, Final residual = 7.93768e-07, No Iterations 12
smoothSolver:  Solving for Uy, Initial residual = 0.0521918, Final residual = 5.36708e-07, No Iterations 15
DICPCG:  Solving for p, Initial residual = 0.803064, Final residual = 0.0337151, No Iterations 61
time step continuity errors : sum local = 2.81112e-11, global = -1.8601e-20, cumulative = -2.77433e-19
DICPCG:  Solving for p, Initial residual = 0.778193, Final residual = 8.48474e-07, No Iterations 158
time step continuity errors : sum local = 5.48514e-16, global = -9.45253e-21, cumulative = -2.86885e-19
ExecutionTime = 3.47 s  ClockTime = 3 s

Time = 0.054

Courant Number mean: 0.0690989 max: 0.0967271
smoothSolver:  Solving for Ux, Initial residual = 0.0121707, Final residual = 7.72326e-07, No Iterations 12
smoothSolver:  Solving for Uy, Initial residual = 0.0596507, Final residual = 9.4661e-07, No Iterations 15
DICPCG:  Solving for p, Initial residual = 0.777052, Final residual = 0.0387286, No Iterations 110
time step continuity errors : sum local = 2.641e-11, global = -5.05254e-20, cumulative = -3.37411e-19
DICPCG:  Solving for p, Initial residual = 0.693256, Final residual = 9.54756e-07, No Iterations 158
time step continuity errors : sum local = 7.0417e-16, global = 6.2343e-20, cumulative = -2.75068e-19
ExecutionTime = 3.54 s  ClockTime = 3 s

Time = 0.055

Courant Number mean: 0.0700554 max: 0.0982158
smoothSolver:  Solving for Ux, Initial residual = 0.011868, Final residual = 7.53674e-07, No Iterations 12
smoothSolver:  Solving for Uy, Initial residual = 0.0500602, Final residual = 6.97056e-07, No Iterations 14
DICPCG:  Solving for p, Initial residual = 0.809048, Final residual = 0.026029, No Iterations 61
time step continuity errors : sum local = 1.94283e-11, global = -1.79133e-20, cumulative = -2.92981e-19
DICPCG:  Solving for p, Initial residual = 0.780983, Final residual = 9.55397e-07, No Iterations 158
time step continuity errors : sum local = 6.02074e-16, global = 5.29561e-20, cumulative = -2.40025e-19
ExecutionTime = 3.59 s  ClockTime = 3 s

Time = 0.056

Courant Number mean: 0.0710024 max: 0.0996906
smoothSolver:  Solving for Ux, Initial residual = 0.0115773, Final residual = 7.34803e-07, No Iterations 12
smoothSolver:  Solving for Uy, Initial residual = 0.0523207, Final residual = 5.66889e-07, No Iterations 15
DICPCG:  Solving for p, Initial residual = 0.788166, Final residual = 0.0281243, No Iterations 61
time step continuity errors : sum local = 2.26428e-11, global = -2.11272e-20, cumulative = -2.61152e-19
DICPCG:  Solving for p, Initial residual = 0.771692, Final residual = 6.82254e-07, No Iterations 159
time step continuity errors : sum local = 4.35852e-16, global = -3.8313e-20, cumulative = -2.99465e-19
ExecutionTime = 3.65 s  ClockTime = 3 s

Time = 0.057

Courant Number mean: 0.07194 max: 0.101152
smoothSolver:  Solving for Ux, Initial residual = 0.0112979, Final residual = 7.16498e-07, No Iterations 12
smoothSolver:  Solving for Uy, Initial residual = 0.0560583, Final residual = 7.29577e-07, No Iterations 15
DICPCG:  Solving for p, Initial residual = 0.792977, Final residual = 0.0390912, No Iterations 102
time step continuity errors : sum local = 2.51781e-11, global = 2.48885e-20, cumulative = -2.74577e-19
DICPCG:  Solving for p, Initial residual = 0.677464, Final residual = 7.46552e-07, No Iterations 158
time step continuity errors : sum local = 5.42511e-16, global = -5.77978e-20, cumulative = -3.32374e-19
ExecutionTime = 3.72 s  ClockTime = 3 s

Time = 0.058

Courant Number mean: 0.0728684 max: 0.102599
smoothSolver:  Solving for Ux, Initial residual = 0.011029, Final residual = 6.99385e-07, No Iterations 12
smoothSolver:  Solving for Uy, Initial residual = 0.0529811, Final residual = 7.76842e-07, No Iterations 14
DICPCG:  Solving for p, Initial residual = 0.794969, Final residual = 0.0227519, No Iterations 61
time step continuity errors : sum local = 1.41435e-11, global = -9.25465e-20, cumulative = -4.24921e-19
DICPCG:  Solving for p, Initial residual = 0.775083, Final residual = 9.85848e-07, No Iterations 158
time step continuity errors : sum local = 6.08572e-16, global = 7.64295e-20, cumulative = -3.48491e-19
ExecutionTime = 3.76 s  ClockTime = 3 s

Time = 0.059

Courant Number mean: 0.0737876 max: 0.104032
smoothSolver:  Solving for Ux, Initial residual = 0.0107703, Final residual = 6.83227e-07, No Iterations 12
smoothSolver:  Solving for Uy, Initial residual = 0.0492871, Final residual = 6.71989e-07, No Iterations 14
DICPCG:  Solving for p, Initial residual = 0.798494, Final residual = 0.023932, No Iterations 61
time step continuity errors : sum local = 1.59413e-11, global = -7.20789e-21, cumulative = -3.55699e-19
DICPCG:  Solving for p, Initial residual = 0.776348, Final residual = 9.41113e-07, No Iterations 158
time step continuity errors : sum local = 5.72077e-16, global = -2.01634e-20, cumulative = -3.75863e-19
ExecutionTime = 3.83 s  ClockTime = 3 s

Time = 0.06

Courant Number mean: 0.0746977 max: 0.105452
smoothSolver:  Solving for Ux, Initial residual = 0.010521, Final residual = 6.66553e-07, No Iterations 12
smoothSolver:  Solving for Uy, Initial residual = 0.0501905, Final residual = 8.60847e-07, No Iterations 14
DICPCG:  Solving for p, Initial residual = 0.789789, Final residual = 0.0236823, No Iterations 61
time step continuity errors : sum local = 1.5938e-11, global = -1.85892e-20, cumulative = -3.94452e-19
DICPCG:  Solving for p, Initial residual = 0.773676, Final residual = 9.36154e-07, No Iterations 158
time step continuity errors : sum local = 5.68124e-16, global = 1.24145e-21, cumulative = -3.93211e-19
ExecutionTime = 3.89 s  ClockTime = 3 s

Time = 0.061

Courant Number mean: 0.0755988 max: 0.106859
smoothSolver:  Solving for Ux, Initial residual = 0.0102807, Final residual = 6.50439e-07, No Iterations 12
smoothSolver:  Solving for Uy, Initial residual = 0.0503107, Final residual = 8.53739e-07, No Iterations 14
DICPCG:  Solving for p, Initial residual = 0.804578, Final residual = 0.0294803, No Iterations 61
time step continuity errors : sum local = 2.21538e-11, global = 6.65688e-21, cumulative = -3.86554e-19
DICPCG:  Solving for p, Initial residual = 0.778721, Final residual = 8.40662e-07, No Iterations 158
time step continuity errors : sum local = 5.04203e-16, global = -9.79906e-20, cumulative = -4.84544e-19
ExecutionTime = 3.95 s  ClockTime = 4 s

Time = 0.062

Courant Number mean: 0.0764911 max: 0.108252
smoothSolver:  Solving for Ux, Initial residual = 0.010049, Final residual = 6.35281e-07, No Iterations 12
smoothSolver:  Solving for Uy, Initial residual = 0.0548111, Final residual = 7.22836e-07, No Iterations 15
DICPCG:  Solving for p, Initial residual = 0.778553, Final residual = 0.0385048, No Iterations 61
time step continuity errors : sum local = 3.18341e-11, global = -5.0731e-20, cumulative = -5.35275e-19
DICPCG:  Solving for p, Initial residual = 0.762944, Final residual = 9.85924e-07, No Iterations 158
time step continuity errors : sum local = 6.03799e-16, global = -2.92436e-20, cumulative = -5.64519e-19
ExecutionTime = 4.01 s  ClockTime = 4 s

Time = 0.063

Courant Number mean: 0.0773746 max: 0.109632
smoothSolver:  Solving for Ux, Initial residual = 0.00982529, Final residual = 6.20615e-07, No Iterations 12
smoothSolver:  Solving for Uy, Initial residual = 0.0657188, Final residual = 5.51619e-07, No Iterations 16
DICPCG:  Solving for p, Initial residual = 0.776489, Final residual = 0.0384244, No Iterations 115
time step continuity errors : sum local = 2.45266e-11, global = 5.80111e-21, cumulative = -5.58718e-19
DICPCG:  Solving for p, Initial residual = 0.623806, Final residual = 7.34363e-07, No Iterations 159
time step continuity errors : sum local = 5.61918e-16, global = 9.92925e-20, cumulative = -4.59425e-19
ExecutionTime = 4.08 s  ClockTime = 4 s

Time = 0.064

Courant Number mean: 0.0782494 max: 0.110999
smoothSolver:  Solving for Ux, Initial residual = 0.00960857, Final residual = 6.06621e-07, No Iterations 12
smoothSolver:  Solving for Uy, Initial residual = 0.0531493, Final residual = 8.34003e-07, No Iterations 14
DICPCG:  Solving for p, Initial residual = 0.788528, Final residual = 0.0231263, No Iterations 61
time step continuity errors : sum local = 1.38538e-11, global = 4.03911e-20, cumulative = -4.19034e-19
DICPCG:  Solving for p, Initial residual = 0.772966, Final residual = 8.66682e-07, No Iterations 158
time step continuity errors : sum local = 4.96081e-16, global = -4.10939e-20, cumulative = -4.60128e-19
ExecutionTime = 4.13 s  ClockTime = 4 s

Time = 0.065

Courant Number mean: 0.0791156 max: 0.112353
smoothSolver:  Solving for Ux, Initial residual = 0.00939922, Final residual = 5.93922e-07, No Iterations 12
smoothSolver:  Solving for Uy, Initial residual = 0.0489794, Final residual = 6.99138e-07, No Iterations 14
DICPCG:  Solving for p, Initial residual = 0.799316, Final residual = 0.0252023, No Iterations 61
time step continuity errors : sum local = 1.62725e-11, global = -8.07711e-20, cumulative = -5.40899e-19
DICPCG:  Solving for p, Initial residual = 0.777771, Final residual = 8.51106e-07, No Iterations 158
time step continuity errors : sum local = 4.84347e-16, global = -5.21253e-20, cumulative = -5.93024e-19
ExecutionTime = 4.2 s  ClockTime = 4 s

Time = 0.066

Courant Number mean: 0.0799733 max: 0.113694
smoothSolver:  Solving for Ux, Initial residual = 0.00919687, Final residual = 5.8082e-07, No Iterations 12
smoothSolver:  Solving for Uy, Initial residual = 0.0505765, Final residual = 9.7536e-07, No Iterations 14
DICPCG:  Solving for p, Initial residual = 0.782799, Final residual = 0.0264283, No Iterations 61
time step continuity errors : sum local = 1.8503e-11, global = 1.3833e-20, cumulative = -5.79192e-19
DICPCG:  Solving for p, Initial residual = 0.76911, Final residual = 9.8236e-07, No Iterations 158
time step continuity errors : sum local = 5.56108e-16, global = -3.14386e-20, cumulative = -6.1063e-19
ExecutionTime = 4.26 s  ClockTime = 4 s

Time = 0.067

Courant Number mean: 0.0808226 max: 0.115022
smoothSolver:  Solving for Ux, Initial residual = 0.00900119, Final residual = 5.68571e-07, No Iterations 12
smoothSolver:  Solving for Uy, Initial residual = 0.0537917, Final residual = 6.04779e-07, No Iterations 15
DICPCG:  Solving for p, Initial residual = 0.796905, Final residual = 0.0332962, No Iterations 62
time step continuity errors : sum local = 2.69262e-11, global = -3.75581e-20, cumulative = -6.48188e-19
DICPCG:  Solving for p, Initial residual = 0.776229, Final residual = 7.92198e-07, No Iterations 158
time step continuity errors : sum local = 4.58341e-16, global = -3.00239e-20, cumulative = -6.78212e-19
ExecutionTime = 4.31 s  ClockTime = 4 s

Time = 0.068

Courant Number mean: 0.0816635 max: 0.116337
smoothSolver:  Solving for Ux, Initial residual = 0.00881187, Final residual = 5.55836e-07, No Iterations 12
smoothSolver:  Solving for Uy, Initial residual = 0.0622453, Final residual = 5.30454e-07, No Iterations 16
DICPCG:  Solving for p, Initial residual = 0.769555, Final residual = 0.0371773, No Iterations 112
time step continuity errors : sum local = 2.29034e-11, global = -8.8977e-20, cumulative = -7.67189e-19
DICPCG:  Solving for p, Initial residual = 0.658906, Final residual = 7.88644e-07, No Iterations 159
time step continuity errors : sum local = 5.45789e-16, global = -3.11525e-20, cumulative = -7.98342e-19
ExecutionTime = 4.38 s  ClockTime = 4 s

Time = 0.069

Courant Number mean: 0.0824962 max: 0.117639
smoothSolver:  Solving for Ux, Initial residual = 0.0086286, Final residual = 5.44071e-07, No Iterations 12
smoothSolver:  Solving for Uy, Initial residual = 0.0509141, Final residual = 7.44639e-07, No Iterations 14
DICPCG:  Solving for p, Initial residual = 0.804003, Final residual = 0.0264417, No Iterations 61
time step continuity errors : sum local = 1.71703e-11, global = 8.95855e-20, cumulative = -7.08756e-19
DICPCG:  Solving for p, Initial residual = 0.775033, Final residual = 9.76918e-07, No Iterations 158
time step continuity errors : sum local = 5.33992e-16, global = -2.14809e-20, cumulative = -7.30237e-19
ExecutionTime = 4.44 s  ClockTime = 4 s

Time = 0.07

Courant Number mean: 0.0833207 max: 0.118929
smoothSolver:  Solving for Ux, Initial residual = 0.00845112, Final residual = 5.33357e-07, No Iterations 12
smoothSolver:  Solving for Uy, Initial residual = 0.0508685, Final residual = 5.42032e-07, No Iterations 15
DICPCG:  Solving for p, Initial residual = 0.779925, Final residual = 0.0286561, No Iterations 61
time step continuity errors : sum local = 2.01551e-11, global = 3.40044e-20, cumulative = -6.96233e-19
DICPCG:  Solving for p, Initial residual = 0.766605, Final residual = 9.83457e-07, No Iterations 158
time step continuity errors : sum local = 5.43419e-16, global = 4.22781e-20, cumulative = -6.53955e-19
ExecutionTime = 4.49 s  ClockTime = 4 s

Time = 0.071

Courant Number mean: 0.0841371 max: 0.120207
smoothSolver:  Solving for Ux, Initial residual = 0.00827915, Final residual = 5.22425e-07, No Iterations 12
smoothSolver:  Solving for Uy, Initial residual = 0.0551331, Final residual = 6.88029e-07, No Iterations 15
DICPCG:  Solving for p, Initial residual = 0.789367, Final residual = 0.0394223, No Iterations 110
time step continuity errors : sum local = 2.20364e-11, global = 3.60933e-20, cumulative = -6.17861e-19
DICPCG:  Solving for p, Initial residual = 0.667587, Final residual = 9.21299e-07, No Iterations 158
time step continuity errors : sum local = 5.88807e-16, global = 5.91105e-20, cumulative = -5.58751e-19
ExecutionTime = 4.56 s  ClockTime = 4 s

Time = 0.072

Courant Number mean: 0.0849455 max: 0.121472
smoothSolver:  Solving for Ux, Initial residual = 0.00811211, Final residual = 5.12922e-07, No Iterations 12
smoothSolver:  Solving for Uy, Initial residual = 0.0505548, Final residual = 7.32267e-07, No Iterations 14
DICPCG:  Solving for p, Initial residual = 0.79274, Final residual = 0.0392793, No Iterations 60
time step continuity errors : sum local = 2.15683e-11, global = -8.24185e-20, cumulative = -6.41169e-19
DICPCG:  Solving for p, Initial residual = 0.772511, Final residual = 9.48979e-07, No Iterations 158
time step continuity errors : sum local = 5.20856e-16, global = -3.20591e-20, cumulative = -6.73228e-19
ExecutionTime = 4.62 s  ClockTime = 4 s

Time = 0.073

Courant Number mean: 0.085746 max: 0.122726
smoothSolver:  Solving for Ux, Initial residual = 0.00794988, Final residual = 5.02492e-07, No Iterations 12
smoothSolver:  Solving for Uy, Initial residual = 0.0502227, Final residual = 7.01076e-07, No Iterations 14
DICPCG:  Solving for p, Initial residual = 0.796198, Final residual = 0.0228691, No Iterations 61
time step continuity errors : sum local = 1.33009e-11, global = 7.05137e-20, cumulative = -6.02715e-19
DICPCG:  Solving for p, Initial residual = 0.77417, Final residual = 7.79216e-07, No Iterations 158
time step continuity errors : sum local = 4.23381e-16, global = -8.21843e-20, cumulative = -6.84899e-19
ExecutionTime = 4.68 s  ClockTime = 4 s

Time = 0.074

Courant Number mean: 0.0865386 max: 0.123967
smoothSolver:  Solving for Ux, Initial residual = 0.00779252, Final residual = 4.91619e-07, No Iterations 12
smoothSolver:  Solving for Uy, Initial residual = 0.0498383, Final residual = 7.80606e-07, No Iterations 14
DICPCG:  Solving for p, Initial residual = 0.787661, Final residual = 0.0230548, No Iterations 61
time step continuity errors : sum local = 1.28738e-11, global = 6.1314e-20, cumulative = -6.23585e-19
DICPCG:  Solving for p, Initial residual = 0.770532, Final residual = 9.37371e-07, No Iterations 158
time step continuity errors : sum local = 4.96775e-16, global = -4.49021e-20, cumulative = -6.68487e-19
ExecutionTime = 4.74 s  ClockTime = 4 s

Time = 0.075

Courant Number mean: 0.0873235 max: 0.125196
smoothSolver:  Solving for Ux, Initial residual = 0.0076398, Final residual = 9.95283e-07, No Iterations 11
smoothSolver:  Solving for Uy, Initial residual = 0.0490173, Final residual = 7.02919e-07, No Iterations 14
DICPCG:  Solving for p, Initial residual = 0.896654, Final residual = 0.0280547, No Iterations 61
time step continuity errors : sum local = 3.30203e-11, global = -6.16047e-20, cumulative = -7.30092e-19
DICPCG:  Solving for p, Initial residual = 0.778852, Final residual = 8.24006e-07, No Iterations 158
time step continuity errors : sum local = 9.17155e-16, global = -2.35483e-20, cumulative = -7.5364e-19
ExecutionTime = 4.8 s  ClockTime = 4 s

Time = 0.076

Courant Number mean: 0.0881006 max: 0.126413
smoothSolver:  Solving for Ux, Initial residual = 0.00749157, Final residual = 9.81704e-07, No Iterations 11
smoothSolver:  Solving for Uy, Initial residual = 0.0530275, Final residual = 6.46499e-07, No Iterations 15
DICPCG:  Solving for p, Initial residual = 0.779962, Final residual = 0.0240611, No Iterations 61
time step continuity errors : sum local = 3.16878e-11, global = -3.01975e-20, cumulative = -7.83837e-19
DICPCG:  Solving for p, Initial residual = 0.771532, Final residual = 8.92808e-07, No Iterations 158
time step continuity errors : sum local = 9.39617e-16, global = -3.05902e-20, cumulative = -8.14428e-19
ExecutionTime = 4.86 s  ClockTime = 4 s

Time = 0.077

Courant Number mean: 0.0888702 max: 0.127618
smoothSolver:  Solving for Ux, Initial residual = 0.00734761, Final residual = 9.62675e-07, No Iterations 11
smoothSolver:  Solving for Uy, Initial residual = 0.0589034, Final residual = 7.8971e-07, No Iterations 15
DICPCG:  Solving for p, Initial residual = 0.80513, Final residual = 0.0341205, No Iterations 62
time step continuity errors : sum local = 5.11726e-11, global = 5.8105e-20, cumulative = -7.56323e-19
DICPCG:  Solving for p, Initial residual = 0.768396, Final residual = 8.57309e-07, No Iterations 158
time step continuity errors : sum local = 9.18655e-16, global = -3.28405e-20, cumulative = -7.89163e-19
ExecutionTime = 4.92 s  ClockTime = 5 s

Time = 0.078

Courant Number mean: 0.0896322 max: 0.128812
smoothSolver:  Solving for Ux, Initial residual = 0.00720773, Final residual = 9.44651e-07, No Iterations 11
smoothSolver:  Solving for Uy, Initial residual = 0.0795507, Final residual = 8.05006e-07, No Iterations 16
DICPCG:  Solving for p, Initial residual = 0.776311, Final residual = 0.0351044, No Iterations 110
time step continuity errors : sum local = 4.15308e-11, global = -2.39177e-20, cumulative = -8.13081e-19
DICPCG:  Solving for p, Initial residual = 0.661062, Final residual = 8.05065e-07, No Iterations 159
time step continuity errors : sum local = 1.05761e-15, global = -1.03252e-19, cumulative = -9.16333e-19
ExecutionTime = 4.98 s  ClockTime = 5 s

Time = 0.079

Courant Number mean: 0.0903868 max: 0.129994
smoothSolver:  Solving for Ux, Initial residual = 0.00707179, Final residual = 9.25764e-07, No Iterations 11
smoothSolver:  Solving for Uy, Initial residual = 0.0536533, Final residual = 7.34266e-07, No Iterations 14
DICPCG:  Solving for p, Initial residual = 0.813702, Final residual = 0.0240761, No Iterations 61
time step continuity errors : sum local = 3.05673e-11, global = -4.07733e-21, cumulative = -9.20411e-19
DICPCG:  Solving for p, Initial residual = 0.774546, Final residual = 8.80033e-07, No Iterations 158
time step continuity errors : sum local = 9.33176e-16, global = -5.19282e-21, cumulative = -9.25603e-19
ExecutionTime = 5.04 s  ClockTime = 5 s

Time = 0.08

Courant Number mean: 0.0911339 max: 0.131165
smoothSolver:  Solving for Ux, Initial residual = 0.00693961, Final residual = 9.07022e-07, No Iterations 11
smoothSolver:  Solving for Uy, Initial residual = 0.0549075, Final residual = 6.44058e-07, No Iterations 15
DICPCG:  Solving for p, Initial residual = 0.789199, Final residual = 0.0274468, No Iterations 61
time step continuity errors : sum local = 3.75689e-11, global = 8.23887e-20, cumulative = -8.43215e-19
DICPCG:  Solving for p, Initial residual = 0.766366, Final residual = 8.93892e-07, No Iterations 158
time step continuity errors : sum local = 9.38636e-16, global = 8.21682e-20, cumulative = -7.61047e-19
ExecutionTime = 5.1 s  ClockTime = 5 s

Time = 0.081

Courant Number mean: 0.0918738 max: 0.132324
smoothSolver:  Solving for Ux, Initial residual = 0.00681105, Final residual = 8.89598e-07, No Iterations 11
smoothSolver:  Solving for Uy, Initial residual = 0.0630447, Final residual = 9.19403e-07, No Iterations 15
DICPCG:  Solving for p, Initial residual = 0.786769, Final residual = 0.0375286, No Iterations 102
time step continuity errors : sum local = 4.01411e-11, global = 4.89733e-20, cumulative = -7.12073e-19
DICPCG:  Solving for p, Initial residual = 0.670001, Final residual = 7.00855e-07, No Iterations 158
time step continuity errors : sum local = 8.44525e-16, global = 4.30981e-20, cumulative = -6.68975e-19
ExecutionTime = 5.17 s  ClockTime = 5 s

Time = 0.082

Courant Number mean: 0.0926064 max: 0.133472
smoothSolver:  Solving for Ux, Initial residual = 0.00668598, Final residual = 8.72689e-07, No Iterations 11
smoothSolver:  Solving for Uy, Initial residual = 0.0551105, Final residual = 7.23961e-07, No Iterations 14
DICPCG:  Solving for p, Initial residual = 0.793131, Final residual = 0.0374666, No Iterations 60
time step continuity errors : sum local = 3.825e-11, global = -2.65493e-20, cumulative = -6.95524e-19
DICPCG:  Solving for p, Initial residual = 0.769193, Final residual = 9.44703e-07, No Iterations 158
time step continuity errors : sum local = 9.47874e-16, global = -3.84015e-20, cumulative = -7.33926e-19
ExecutionTime = 5.22 s  ClockTime = 5 s

Time = 0.083

Courant Number mean: 0.0933319 max: 0.134609
smoothSolver:  Solving for Ux, Initial residual = 0.00656425, Final residual = 8.57965e-07, No Iterations 11
smoothSolver:  Solving for Uy, Initial residual = 0.0513044, Final residual = 6.5133e-07, No Iterations 14
DICPCG:  Solving for p, Initial residual = 0.806971, Final residual = 0.0390103, No Iterations 60
time step continuity errors : sum local = 4.29371e-11, global = -5.50759e-20, cumulative = -7.89002e-19
DICPCG:  Solving for p, Initial residual = 0.780482, Final residual = 9.05856e-07, No Iterations 158
time step continuity errors : sum local = 9.3088e-16, global = 1.60062e-20, cumulative = -7.72996e-19
ExecutionTime = 5.28 s  ClockTime = 5 s

Time = 0.084

Courant Number mean: 0.0940503 max: 0.135735
smoothSolver:  Solving for Ux, Initial residual = 0.00644574, Final residual = 8.42318e-07, No Iterations 11
smoothSolver:  Solving for Uy, Initial residual = 0.0531273, Final residual = 4.99868e-07, No Iterations 15
DICPCG:  Solving for p, Initial residual = 0.791398, Final residual = 0.023736, No Iterations 61
time step continuity errors : sum local = 2.93276e-11, global = 1.08486e-20, cumulative = -7.62147e-19
DICPCG:  Solving for p, Initial residual = 0.766316, Final residual = 9.22169e-07, No Iterations 158
time step continuity errors : sum local = 9.28694e-16, global = -8.06816e-20, cumulative = -8.42829e-19
ExecutionTime = 5.34 s  ClockTime = 5 s

Time = 0.085

Courant Number mean: 0.0947616 max: 0.13685
smoothSolver:  Solving for Ux, Initial residual = 0.00633034, Final residual = 8.26428e-07, No Iterations 11
smoothSolver:  Solving for Uy, Initial residual = 0.0553389, Final residual = 6.20674e-07, No Iterations 15
DICPCG:  Solving for p, Initial residual = 0.798075, Final residual = 0.0380358, No Iterations 61
time step continuity errors : sum local = 5.03482e-11, global = 2.76456e-20, cumulative = -8.15183e-19
DICPCG:  Solving for p, Initial residual = 0.775696, Final residual = 7.71251e-07, No Iterations 158
time step continuity errors : sum local = 7.69657e-16, global = -7.23057e-20, cumulative = -8.87489e-19
ExecutionTime = 5.39 s  ClockTime = 5 s

Time = 0.086

Courant Number mean: 0.095466 max: 0.137954
smoothSolver:  Solving for Ux, Initial residual = 0.00621791, Final residual = 8.10484e-07, No Iterations 11
smoothSolver:  Solving for Uy, Initial residual = 0.0676467, Final residual = 6.02883e-07, No Iterations 16
DICPCG:  Solving for p, Initial residual = 0.773476, Final residual = 0.0368155, No Iterations 110
time step continuity errors : sum local = 3.9096e-11, global = 6.23045e-20, cumulative = -8.25184e-19
DICPCG:  Solving for p, Initial residual = 0.665887, Final residual = 8.03459e-07, No Iterations 159
time step continuity errors : sum local = 9.49407e-16, global = -5.43747e-20, cumulative = -8.79559e-19
ExecutionTime = 5.46 s  ClockTime = 5 s

Time = 0.087

Courant Number mean: 0.0961635 max: 0.139047
smoothSolver:  Solving for Ux, Initial residual = 0.00610836, Final residual = 7.9597e-07, No Iterations 11
smoothSolver:  Solving for Uy, Initial residual = 0.0517946, Final residual = 6.94953e-07, No Iterations 14
DICPCG:  Solving for p, Initial residual = 0.809205, Final residual = 0.0236307, No Iterations 61
time step continuity errors : sum local = 2.67848e-11, global = 3.62344e-20, cumulative = -8.43325e-19
DICPCG:  Solving for p, Initial residual = 0.775619, Final residual = 9.41429e-07, No Iterations 158
time step continuity errors : sum local = 9.03804e-16, global = 6.63387e-20, cumulative = -7.76986e-19
ExecutionTime = 5.52 s  ClockTime = 5 s

Time = 0.088

Courant Number mean: 0.0968542 max: 0.14013
smoothSolver:  Solving for Ux, Initial residual = 0.00600159, Final residual = 7.8304e-07, No Iterations 11
smoothSolver:  Solving for Uy, Initial residual = 0.0525444, Final residual = 5.40287e-07, No Iterations 15
DICPCG:  Solving for p, Initial residual = 0.786239, Final residual = 0.0263024, No Iterations 61
time step continuity errors : sum local = 3.28576e-11, global = -5.97132e-21, cumulative = -7.82957e-19
DICPCG:  Solving for p, Initial residual = 0.764769, Final residual = 8.57725e-07, No Iterations 158
time step continuity errors : sum local = 8.32974e-16, global = -1.74484e-20, cumulative = -8.00406e-19
ExecutionTime = 5.58 s  ClockTime = 5 s

Time = 0.089

Courant Number mean: 0.0975381 max: 0.141202
smoothSolver:  Solving for Ux, Initial residual = 0.00589748, Final residual = 7.69211e-07, No Iterations 11
smoothSolver:  Solving for Uy, Initial residual = 0.0595601, Final residual = 7.69898e-07, No Iterations 15
DICPCG:  Solving for p, Initial residual = 0.79093, Final residual = 0.0327355, No Iterations 105
time step continuity errors : sum local = 3.20864e-11, global = -1.27896e-20, cumulative = -8.13195e-19
DICPCG:  Solving for p, Initial residual = 0.674705, Final residual = 8.22436e-07, No Iterations 158
time step continuity errors : sum local = 9.00473e-16, global = 6.77571e-20, cumulative = -7.45438e-19
ExecutionTime = 5.64 s  ClockTime = 5 s

Time = 0.09

Courant Number mean: 0.0982154 max: 0.142264
smoothSolver:  Solving for Ux, Initial residual = 0.00579595, Final residual = 7.56906e-07, No Iterations 11
smoothSolver:  Solving for Uy, Initial residual = 0.0534429, Final residual = 7.13629e-07, No Iterations 14
DICPCG:  Solving for p, Initial residual = 0.793758, Final residual = 0.0369344, No Iterations 60
time step continuity errors : sum local = 3.47033e-11, global = 3.70514e-20, cumulative = -7.08387e-19
DICPCG:  Solving for p, Initial residual = 0.770006, Final residual = 7.68417e-07, No Iterations 158
time step continuity errors : sum local = 7.21633e-16, global = 4.37842e-20, cumulative = -6.64602e-19
ExecutionTime = 5.7 s  ClockTime = 5 s

Time = 0.091

Courant Number mean: 0.098886 max: 0.143315
smoothSolver:  Solving for Ux, Initial residual = 0.00569692, Final residual = 7.44271e-07, No Iterations 11
smoothSolver:  Solving for Uy, Initial residual = 0.0517029, Final residual = 6.27885e-07, No Iterations 14
DICPCG:  Solving for p, Initial residual = 0.801791, Final residual = 0.0373418, No Iterations 60
time step continuity errors : sum local = 3.63596e-11, global = -7.21637e-20, cumulative = -7.36766e-19
DICPCG:  Solving for p, Initial residual = 0.778532, Final residual = 7.77493e-07, No Iterations 158
time step continuity errors : sum local = 7.32592e-16, global = -3.18574e-21, cumulative = -7.39952e-19
ExecutionTime = 5.75 s  ClockTime = 5 s

Time = 0.092

Courant Number mean: 0.0995501 max: 0.144356
smoothSolver:  Solving for Ux, Initial residual = 0.00560028, Final residual = 7.29994e-07, No Iterations 11
smoothSolver:  Solving for Uy, Initial residual = 0.0521429, Final residual = 7.67015e-07, No Iterations 14
DICPCG:  Solving for p, Initial residual = 0.792369, Final residual = 0.0376664, No Iterations 60
time step continuity errors : sum local = 3.66735e-11, global = -1.73758e-20, cumulative = -7.57328e-19
DICPCG:  Solving for p, Initial residual = 0.772918, Final residual = 7.8391e-07, No Iterations 158
time step continuity errors : sum local = 7.23578e-16, global = -3.39259e-20, cumulative = -7.91254e-19
ExecutionTime = 5.81 s  ClockTime = 5 s

Time = 0.093

Courant Number mean: 0.100208 max: 0.145387
smoothSolver:  Solving for Ux, Initial residual = 0.00550596, Final residual = 7.16972e-07, No Iterations 11
smoothSolver:  Solving for Uy, Initial residual = 0.0515981, Final residual = 7.95596e-07, No Iterations 14
DICPCG:  Solving for p, Initial residual = 0.803718, Final residual = 0.0255712, No Iterations 61
time step continuity errors : sum local = 2.83771e-11, global = 1.55927e-19, cumulative = -6.35327e-19
DICPCG:  Solving for p, Initial residual = 0.77188, Final residual = 7.18833e-07, No Iterations 158
time step continuity errors : sum local = 6.46895e-16, global = -2.86385e-20, cumulative = -6.63965e-19
ExecutionTime = 5.87 s  ClockTime = 5 s

Time = 0.094

Courant Number mean: 0.100859 max: 0.146408
smoothSolver:  Solving for Ux, Initial residual = 0.00541389, Final residual = 7.04872e-07, No Iterations 11
smoothSolver:  Solving for Uy, Initial residual = 0.0534605, Final residual = 6.3721e-07, No Iterations 15
DICPCG:  Solving for p, Initial residual = 0.784004, Final residual = 0.0322007, No Iterations 61
time step continuity errors : sum local = 3.93331e-11, global = 1.9126e-20, cumulative = -6.44839e-19
DICPCG:  Solving for p, Initial residual = 0.760236, Final residual = 8.91341e-07, No Iterations 158
time step continuity errors : sum local = 8.12074e-16, global = -1.77494e-20, cumulative = -6.62589e-19
ExecutionTime = 5.93 s  ClockTime = 6 s

Time = 0.095

Courant Number mean: 0.101504 max: 0.14742
smoothSolver:  Solving for Ux, Initial residual = 0.00532398, Final residual = 6.92276e-07, No Iterations 11
smoothSolver:  Solving for Uy, Initial residual = 0.0632152, Final residual = 9.62957e-07, No Iterations 15
DICPCG:  Solving for p, Initial residual = 0.785319, Final residual = 0.0356357, No Iterations 107
time step continuity errors : sum local = 3.38021e-11, global = 3.57445e-20, cumulative = -6.26844e-19
DICPCG:  Solving for p, Initial residual = 0.648682, Final residual = 9.1393e-07, No Iterations 158
time step continuity errors : sum local = 9.99851e-16, global = -4.50186e-20, cumulative = -6.71863e-19
ExecutionTime = 5.99 s  ClockTime = 6 s

Time = 0.096

Courant Number mean: 0.102142 max: 0.148421
smoothSolver:  Solving for Ux, Initial residual = 0.00523617, Final residual = 6.81754e-07, No Iterations 11
smoothSolver:  Solving for Uy, Initial residual = 0.0519329, Final residual = 7.21313e-07, No Iterations 14
DICPCG:  Solving for p, Initial residual = 0.79199, Final residual = 0.0374651, No Iterations 60
time step continuity errors : sum local = 3.36122e-11, global = 3.0051e-20, cumulative = -6.41812e-19
DICPCG:  Solving for p, Initial residual = 0.768551, Final residual = 8.78077e-07, No Iterations 158
time step continuity errors : sum local = 7.67956e-16, global = 3.89826e-20, cumulative = -6.02829e-19
ExecutionTime = 6.05 s  ClockTime = 6 s

Time = 0.097

Courant Number mean: 0.102774 max: 0.149412
smoothSolver:  Solving for Ux, Initial residual = 0.00515038, Final residual = 6.71857e-07, No Iterations 11
smoothSolver:  Solving for Uy, Initial residual = 0.0503168, Final residual = 6.46227e-07, No Iterations 14
DICPCG:  Solving for p, Initial residual = 0.804031, Final residual = 0.0397018, No Iterations 60
time step continuity errors : sum local = 3.77405e-11, global = -1.17302e-20, cumulative = -6.14559e-19
DICPCG:  Solving for p, Initial residual = 0.777175, Final residual = 6.97226e-07, No Iterations 158
time step continuity errors : sum local = 6.19184e-16, global = 6.73952e-20, cumulative = -5.47164e-19
ExecutionTime = 6.11 s  ClockTime = 6 s

Time = 0.098

Courant Number mean: 0.103401 max: 0.150394
smoothSolver:  Solving for Ux, Initial residual = 0.00506656, Final residual = 6.60698e-07, No Iterations 11
smoothSolver:  Solving for Uy, Initial residual = 0.0515684, Final residual = 9.51772e-07, No Iterations 14
DICPCG:  Solving for p, Initial residual = 0.785316, Final residual = 0.0246332, No Iterations 61
time step continuity errors : sum local = 2.64439e-11, global = 7.70888e-21, cumulative = -5.39455e-19
DICPCG:  Solving for p, Initial residual = 0.764207, Final residual = 9.02363e-07, No Iterations 158
time step continuity errors : sum local = 7.78784e-16, global = 1.27953e-21, cumulative = -5.38176e-19
ExecutionTime = 6.16 s  ClockTime = 6 s

Time = 0.099

Courant Number mean: 0.104021 max: 0.151366
smoothSolver:  Solving for Ux, Initial residual = 0.00498463, Final residual = 6.5037e-07, No Iterations 11
smoothSolver:  Solving for Uy, Initial residual = 0.0548618, Final residual = 5.97626e-07, No Iterations 15
DICPCG:  Solving for p, Initial residual = 0.7947, Final residual = 0.0330131, No Iterations 62
time step continuity errors : sum local = 4.01261e-11, global = 7.20309e-20, cumulative = -4.66145e-19
DICPCG:  Solving for p, Initial residual = 0.766823, Final residual = 8.66655e-07, No Iterations 158
time step continuity errors : sum local = 7.54869e-16, global = -1.05579e-21, cumulative = -4.67201e-19
ExecutionTime = 6.22 s  ClockTime = 6 s

Time = 0.1

Courant Number mean: 0.104634 max: 0.152329
smoothSolver:  Solving for Ux, Initial residual = 0.00490454, Final residual = 6.38804e-07, No Iterations 11
smoothSolver:  Solving for Uy, Initial residual = 0.0651327, Final residual = 5.6615e-07, No Iterations 16
DICPCG:  Solving for p, Initial residual = 0.768398, Final residual = 0.0376211, No Iterations 110
time step continuity errors : sum local = 3.50952e-11, global = 1.34557e-19, cumulative = -3.32643e-19
DICPCG:  Solving for p, Initial residual = 0.65834, Final residual = 8.39186e-07, No Iterations 159
time step continuity errors : sum local = 8.74122e-16, global = -6.76511e-20, cumulative = -4.00294e-19
ExecutionTime = 6.32 s  ClockTime = 6 s

Time = 0.101

Courant Number mean: 0.105242 max: 0.153282
smoothSolver:  Solving for Ux, Initial residual = 0.00482624, Final residual = 6.28942e-07, No Iterations 11
smoothSolver:  Solving for Uy, Initial residual = 0.0510322, Final residual = 6.74539e-07, No Iterations 14
DICPCG:  Solving for p, Initial residual = 0.805609, Final residual = 0.0243666, No Iterations 61
time step continuity errors : sum local = 2.43102e-11, global = -3.27187e-20, cumulative = -4.33013e-19
DICPCG:  Solving for p, Initial residual = 0.769302, Final residual = 9.57148e-07, No Iterations 158
time step continuity errors : sum local = 8.01667e-16, global = -6.07773e-20, cumulative = -4.9379e-19
ExecutionTime = 6.4 s  ClockTime = 6 s

Time = 0.102

Courant Number mean: 0.105844 max: 0.154226
smoothSolver:  Solving for Ux, Initial residual = 0.00474966, Final residual = 6.18746e-07, No Iterations 11
smoothSolver:  Solving for Uy, Initial residual = 0.0522095, Final residual = 5.39982e-07, No Iterations 15
DICPCG:  Solving for p, Initial residual = 0.780775, Final residual = 0.0276474, No Iterations 61
time step continuity errors : sum local = 2.99184e-11, global = 8.98921e-20, cumulative = -4.03898e-19
DICPCG:  Solving for p, Initial residual = 0.76024, Final residual = 9.54298e-07, No Iterations 158
time step continuity errors : sum local = 7.94647e-16, global = 4.75766e-21, cumulative = -3.99141e-19
ExecutionTime = 6.45 s  ClockTime = 6 s

Time = 0.103

Courant Number mean: 0.10644 max: 0.155161
[...]
DICPCG:  Solving for p, Initial residual = 0.606784, Final residual = 0.0295119, No Iterations 9
time step continuity errors : sum local = 2.14445e-11, global = 9.01366e-20, cumulative = -9.51924e-19
DICPCG:  Solving for p, Initial residual = 0.228907, Final residual = 9.84792e-07, No Iterations 148
time step continuity errors : sum local = 6.66096e-16, global = -1.655e-19, cumulative = -1.11742e-18
ExecutionTime = 54.8 s  ClockTime = 54 s

Time = 0.974

Courant Number mean: 0.166884 max: 0.24997
smoothSolver:  Solving for Ux, Initial residual = 9.53734e-07, Final residual = 9.53734e-07, No Iterations 0
smoothSolver:  Solving for Uy, Initial residual = 0.207774, Final residual = 7.38633e-07, No Iterations 16
DICPCG:  Solving for p, Initial residual = 0.608152, Final residual = 0.0291703, No Iterations 10
time step continuity errors : sum local = 2.17947e-11, global = -7.35608e-20, cumulative = -1.19099e-18
DICPCG:  Solving for p, Initial residual = 0.229966, Final residual = 8.74328e-07, No Iterations 152
time step continuity errors : sum local = 5.93338e-16, global = 1.86043e-19, cumulative = -1.00494e-18
ExecutionTime = 54.84 s  ClockTime = 54 s

Time = 0.975

Courant Number mean: 0.166884 max: 0.249971
smoothSolver:  Solving for Ux, Initial residual = 9.50334e-07, Final residual = 9.50334e-07, No Iterations 0
smoothSolver:  Solving for Uy, Initial residual = 0.219695, Final residual = 5.1909e-07, No Iterations 17
DICPCG:  Solving for p, Initial residual = 0.607529, Final residual = 0.0275235, No Iterations 8
time step continuity errors : sum local = 2.15087e-11, global = 2.91642e-20, cumulative = -9.75778e-19
DICPCG:  Solving for p, Initial residual = 0.244409, Final residual = 7.18186e-07, No Iterations 149
time step continuity errors : sum local = 4.96138e-16, global = 2.74844e-19, cumulative = -7.00934e-19
ExecutionTime = 54.89 s  ClockTime = 55 s

Time = 0.976

Courant Number mean: 0.166884 max: 0.249971
smoothSolver:  Solving for Ux, Initial residual = 9.46933e-07, Final residual = 9.46933e-07, No Iterations 0
smoothSolver:  Solving for Uy, Initial residual = 0.233463, Final residual = 5.99506e-07, No Iterations 17
DICPCG:  Solving for p, Initial residual = 0.599262, Final residual = 0.0293353, No Iterations 56
time step continuity errors : sum local = 2.19921e-11, global = -1.01702e-19, cumulative = -8.02636e-19
DICPCG:  Solving for p, Initial residual = 0.239597, Final residual = 9.31344e-07, No Iterations 150
time step continuity errors : sum local = 6.20318e-16, global = 6.39318e-20, cumulative = -7.38704e-19
ExecutionTime = 54.94 s  ClockTime = 55 s

Time = 0.977

Courant Number mean: 0.166884 max: 0.249971
smoothSolver:  Solving for Ux, Initial residual = 9.43533e-07, Final residual = 9.43533e-07, No Iterations 0
smoothSolver:  Solving for Uy, Initial residual = 0.219018, Final residual = 9.79692e-07, No Iterations 16
DICPCG:  Solving for p, Initial residual = 0.590041, Final residual = 0.0286418, No Iterations 8
time step continuity errors : sum local = 2.22127e-11, global = -6.46109e-20, cumulative = -8.03315e-19
DICPCG:  Solving for p, Initial residual = 0.235586, Final residual = 8.01917e-07, No Iterations 154
time step continuity errors : sum local = 5.45518e-16, global = -1.17632e-19, cumulative = -9.20948e-19
ExecutionTime = 54.98 s  ClockTime = 55 s

Time = 0.978

Courant Number mean: 0.166884 max: 0.249971
smoothSolver:  Solving for Ux, Initial residual = 9.40133e-07, Final residual = 9.40133e-07, No Iterations 0
smoothSolver:  Solving for Uy, Initial residual = 0.243816, Final residual = 6.65907e-07, No Iterations 17
DICPCG:  Solving for p, Initial residual = 0.59379, Final residual = 0.0273127, No Iterations 11
time step continuity errors : sum local = 2.27469e-11, global = 1.06194e-19, cumulative = -8.14754e-19
DICPCG:  Solving for p, Initial residual = 0.239825, Final residual = 9.18851e-07, No Iterations 154
time step continuity errors : sum local = 6.23002e-16, global = -7.20543e-20, cumulative = -8.86808e-19
ExecutionTime = 55.02 s  ClockTime = 55 s

Time = 0.979

Courant Number mean: 0.166884 max: 0.249971
smoothSolver:  Solving for Ux, Initial residual = 9.36734e-07, Final residual = 9.36734e-07, No Iterations 0
smoothSolver:  Solving for Uy, Initial residual = 0.252136, Final residual = 8.87112e-07, No Iterations 17
DICPCG:  Solving for p, Initial residual = 0.593171, Final residual = 0.0242735, No Iterations 78
time step continuity errors : sum local = 1.69102e-11, global = -2.36545e-19, cumulative = -1.12335e-18
DICPCG:  Solving for p, Initial residual = 0.243721, Final residual = 9.28073e-07, No Iterations 154
time step continuity errors : sum local = 6.58588e-16, global = -1.4112e-20, cumulative = -1.13747e-18
ExecutionTime = 55.08 s  ClockTime = 55 s

Time = 0.98

Courant Number mean: 0.166884 max: 0.249971
smoothSolver:  Solving for Ux, Initial residual = 9.33338e-07, Final residual = 9.33338e-07, No Iterations 0
smoothSolver:  Solving for Uy, Initial residual = 0.197492, Final residual = 8.379e-07, No Iterations 15
DICPCG:  Solving for p, Initial residual = 0.597142, Final residual = 0.026511, No Iterations 7
time step continuity errors : sum local = 1.79296e-11, global = -1.96653e-19, cumulative = -1.33412e-18
DICPCG:  Solving for p, Initial residual = 0.229875, Final residual = 9.8069e-07, No Iterations 148
time step continuity errors : sum local = 6.37065e-16, global = 3.53319e-20, cumulative = -1.29879e-18
ExecutionTime = 55.12 s  ClockTime = 55 s

Time = 0.981

Courant Number mean: 0.166884 max: 0.249971
smoothSolver:  Solving for Ux, Initial residual = 9.29945e-07, Final residual = 9.29945e-07, No Iterations 0
smoothSolver:  Solving for Uy, Initial residual = 0.196812, Final residual = 9.72173e-07, No Iterations 15
DICPCG:  Solving for p, Initial residual = 0.584533, Final residual = 0.0233266, No Iterations 9
time step continuity errors : sum local = 1.59173e-11, global = 9.63935e-20, cumulative = -1.20239e-18
DICPCG:  Solving for p, Initial residual = 0.214693, Final residual = 8.78214e-07, No Iterations 149
time step continuity errors : sum local = 5.69659e-16, global = 7.14831e-20, cumulative = -1.13091e-18
ExecutionTime = 55.16 s  ClockTime = 55 s

Time = 0.982

Courant Number mean: 0.166884 max: 0.249971
smoothSolver:  Solving for Ux, Initial residual = 9.26554e-07, Final residual = 9.26554e-07, No Iterations 0
smoothSolver:  Solving for Uy, Initial residual = 0.198857, Final residual = 6.04347e-07, No Iterations 16
DICPCG:  Solving for p, Initial residual = 0.587394, Final residual = 0.0257897, No Iterations 9
time step continuity errors : sum local = 1.79544e-11, global = -7.1197e-20, cumulative = -1.20211e-18
DICPCG:  Solving for p, Initial residual = 0.228171, Final residual = 8.78295e-07, No Iterations 148
time step continuity errors : sum local = 5.60741e-16, global = 5.80775e-20, cumulative = -1.14403e-18
ExecutionTime = 55.21 s  ClockTime = 55 s

Time = 0.983

Courant Number mean: 0.166884 max: 0.249971
smoothSolver:  Solving for Ux, Initial residual = 9.23166e-07, Final residual = 9.23166e-07, No Iterations 0
smoothSolver:  Solving for Uy, Initial residual = 0.205297, Final residual = 7.50154e-07, No Iterations 16
DICPCG:  Solving for p, Initial residual = 0.596457, Final residual = 0.0285798, No Iterations 8
time step continuity errors : sum local = 2.03496e-11, global = -1.23276e-19, cumulative = -1.26731e-18
DICPCG:  Solving for p, Initial residual = 0.230472, Final residual = 7.95075e-07, No Iterations 150
time step continuity errors : sum local = 5.29045e-16, global = -1.3113e-19, cumulative = -1.39844e-18
ExecutionTime = 55.25 s  ClockTime = 55 s

Time = 0.984

Courant Number mean: 0.166884 max: 0.249972
smoothSolver:  Solving for Ux, Initial residual = 9.19781e-07, Final residual = 9.19781e-07, No Iterations 0
smoothSolver:  Solving for Uy, Initial residual = 0.213217, Final residual = 5.06328e-07, No Iterations 17
DICPCG:  Solving for p, Initial residual = 0.588853, Final residual = 0.026397, No Iterations 10
time step continuity errors : sum local = 1.9971e-11, global = 7.33122e-20, cumulative = -1.32512e-18
DICPCG:  Solving for p, Initial residual = 0.230929, Final residual = 9.80042e-07, No Iterations 153
time step continuity errors : sum local = 6.40726e-16, global = 7.78104e-21, cumulative = -1.31734e-18
ExecutionTime = 55.29 s  ClockTime = 55 s

Time = 0.985

Courant Number mean: 0.166885 max: 0.249972
smoothSolver:  Solving for Ux, Initial residual = 9.164e-07, Final residual = 9.164e-07, No Iterations 0
smoothSolver:  Solving for Uy, Initial residual = 0.215509, Final residual = 6.00738e-07, No Iterations 17
DICPCG:  Solving for p, Initial residual = 0.604435, Final residual = 0.0270541, No Iterations 12
time step continuity errors : sum local = 2.12723e-11, global = -6.03658e-20, cumulative = -1.37771e-18
DICPCG:  Solving for p, Initial residual = 0.236249, Final residual = 9.03926e-07, No Iterations 154
time step continuity errors : sum local = 5.94629e-16, global = 4.86344e-20, cumulative = -1.32907e-18
ExecutionTime = 55.33 s  ClockTime = 55 s

Time = 0.986

Courant Number mean: 0.166885 max: 0.249972
smoothSolver:  Solving for Ux, Initial residual = 9.13023e-07, Final residual = 9.13023e-07, No Iterations 0
smoothSolver:  Solving for Uy, Initial residual = 0.229982, Final residual = 7.1547e-07, No Iterations 17
DICPCG:  Solving for p, Initial residual = 0.595433, Final residual = 0.0267397, No Iterations 77
time step continuity errors : sum local = 1.81978e-11, global = 1.30351e-20, cumulative = -1.31604e-18
DICPCG:  Solving for p, Initial residual = 0.234947, Final residual = 8.63453e-07, No Iterations 153
time step continuity errors : sum local = 6.05865e-16, global = -4.3553e-20, cumulative = -1.35959e-18
ExecutionTime = 55.4 s  ClockTime = 55 s

Time = 0.987

Courant Number mean: 0.166885 max: 0.249972
smoothSolver:  Solving for Ux, Initial residual = 9.09649e-07, Final residual = 9.09649e-07, No Iterations 0
smoothSolver:  Solving for Uy, Initial residual = 0.198101, Final residual = 9.01676e-07, No Iterations 15
DICPCG:  Solving for p, Initial residual = 0.574833, Final residual = 0.0258581, No Iterations 8
time step continuity errors : sum local = 1.74042e-11, global = -3.17101e-19, cumulative = -1.67669e-18
DICPCG:  Solving for p, Initial residual = 0.220616, Final residual = 7.78393e-07, No Iterations 150
time step continuity errors : sum local = 5.12873e-16, global = 1.13006e-19, cumulative = -1.56369e-18
ExecutionTime = 55.44 s  ClockTime = 55 s

Time = 0.988

Courant Number mean: 0.166885 max: 0.249972
smoothSolver:  Solving for Ux, Initial residual = 9.0628e-07, Final residual = 9.0628e-07, No Iterations 0
smoothSolver:  Solving for Uy, Initial residual = 0.189684, Final residual = 9.72854e-07, No Iterations 15
DICPCG:  Solving for p, Initial residual = 0.580859, Final residual = 0.0265408, No Iterations 8
time step continuity errors : sum local = 1.78362e-11, global = 3.99012e-20, cumulative = -1.52378e-18
DICPCG:  Solving for p, Initial residual = 0.225418, Final residual = 6.94813e-07, No Iterations 149
time step continuity errors : sum local = 4.40442e-16, global = -1.9954e-20, cumulative = -1.54374e-18
ExecutionTime = 55.48 s  ClockTime = 55 s

Time = 0.989

Courant Number mean: 0.166885 max: 0.249972
smoothSolver:  Solving for Ux, Initial residual = 9.02915e-07, Final residual = 9.02915e-07, No Iterations 0
smoothSolver:  Solving for Uy, Initial residual = 0.196527, Final residual = 5.87248e-07, No Iterations 16
DICPCG:  Solving for p, Initial residual = 0.583886, Final residual = 0.026396, No Iterations 10
time step continuity errors : sum local = 1.77324e-11, global = -2.3267e-20, cumulative = -1.56701e-18
DICPCG:  Solving for p, Initial residual = 0.220692, Final residual = 8.11294e-07, No Iterations 153
time step continuity errors : sum local = 5.14323e-16, global = -4.18843e-20, cumulative = -1.60889e-18
ExecutionTime = 55.52 s  ClockTime = 55 s

Time = 0.99

Courant Number mean: 0.166885 max: 0.249972
smoothSolver:  Solving for Ux, Initial residual = 8.99555e-07, Final residual = 8.99555e-07, No Iterations 0
smoothSolver:  Solving for Uy, Initial residual = 0.207028, Final residual = 7.33516e-07, No Iterations 16
DICPCG:  Solving for p, Initial residual = 0.582004, Final residual = 0.0274399, No Iterations 9
time step continuity errors : sum local = 1.87959e-11, global = -1.6515e-20, cumulative = -1.6254e-18
DICPCG:  Solving for p, Initial residual = 0.2226, Final residual = 7.48075e-07, No Iterations 148
time step continuity errors : sum local = 4.75636e-16, global = -1.04869e-20, cumulative = -1.63589e-18
ExecutionTime = 55.56 s  ClockTime = 55 s

Time = 0.991

Courant Number mean: 0.166885 max: 0.249972
smoothSolver:  Solving for Ux, Initial residual = 8.962e-07, Final residual = 8.962e-07, No Iterations 0
smoothSolver:  Solving for Uy, Initial residual = 0.209511, Final residual = 8.38123e-07, No Iterations 16
DICPCG:  Solving for p, Initial residual = 0.589373, Final residual = 0.0267804, No Iterations 11
time step continuity errors : sum local = 1.90175e-11, global = -1.1212e-19, cumulative = -1.74801e-18
DICPCG:  Solving for p, Initial residual = 0.224426, Final residual = 6.74312e-07, No Iterations 154
time step continuity errors : sum local = 4.30607e-16, global = -1.50112e-20, cumulative = -1.76302e-18
ExecutionTime = 55.61 s  ClockTime = 55 s

Time = 0.992

Courant Number mean: 0.166885 max: 0.249973
smoothSolver:  Solving for Ux, Initial residual = 8.92851e-07, Final residual = 8.92851e-07, No Iterations 0
smoothSolver:  Solving for Uy, Initial residual = 0.219245, Final residual = 9.78105e-07, No Iterations 16
DICPCG:  Solving for p, Initial residual = 0.587812, Final residual = 0.026572, No Iterations 8
time step continuity errors : sum local = 1.97995e-11, global = -1.84651e-20, cumulative = -1.78149e-18
DICPCG:  Solving for p, Initial residual = 0.235068, Final residual = 9.63666e-07, No Iterations 152
time step continuity errors : sum local = 6.3474e-16, global = -3.1201e-20, cumulative = -1.81269e-18
ExecutionTime = 55.65 s  ClockTime = 55 s

Time = 0.993

Courant Number mean: 0.166885 max: 0.249973
smoothSolver:  Solving for Ux, Initial residual = 8.89508e-07, Final residual = 8.89508e-07, No Iterations 0
smoothSolver:  Solving for Uy, Initial residual = 0.2524, Final residual = 6.47482e-07, No Iterations 17
DICPCG:  Solving for p, Initial residual = 0.583668, Final residual = 0.0288712, No Iterations 12
time step continuity errors : sum local = 2.25396e-11, global = -1.19298e-21, cumulative = -1.81388e-18
DICPCG:  Solving for p, Initial residual = 0.239584, Final residual = 6.18929e-07, No Iterations 155
time step continuity errors : sum local = 4.04481e-16, global = -7.56604e-20, cumulative = -1.88954e-18
ExecutionTime = 55.69 s  ClockTime = 55 s

Time = 0.994

Courant Number mean: 0.166885 max: 0.249973
smoothSolver:  Solving for Ux, Initial residual = 8.8617e-07, Final residual = 8.8617e-07, No Iterations 0
smoothSolver:  Solving for Uy, Initial residual = 0.249415, Final residual = 7.97035e-07, No Iterations 17
DICPCG:  Solving for p, Initial residual = 0.586908, Final residual = 0.023262, No Iterations 78
time step continuity errors : sum local = 1.51356e-11, global = 3.81348e-20, cumulative = -1.85141e-18
DICPCG:  Solving for p, Initial residual = 0.245258, Final residual = 7.56662e-07, No Iterations 155
time step continuity errors : sum local = 4.96765e-16, global = 4.09625e-20, cumulative = -1.81045e-18
ExecutionTime = 55.75 s  ClockTime = 55 s

Time = 0.995

Courant Number mean: 0.166885 max: 0.249973
smoothSolver:  Solving for Ux, Initial residual = 8.82839e-07, Final residual = 8.82839e-07, No Iterations 0
smoothSolver:  Solving for Uy, Initial residual = 0.218263, Final residual = 5.02186e-07, No Iterations 16
DICPCG:  Solving for p, Initial residual = 0.589436, Final residual = 0.0272357, No Iterations 7
time step continuity errors : sum local = 1.71362e-11, global = -3.01303e-20, cumulative = -1.84058e-18
DICPCG:  Solving for p, Initial residual = 0.222956, Final residual = 7.61663e-07, No Iterations 149
time step continuity errors : sum local = 4.70567e-16, global = -9.05629e-20, cumulative = -1.93114e-18
ExecutionTime = 55.79 s  ClockTime = 55 s

Time = 0.996

Courant Number mean: 0.166885 max: 0.249973
smoothSolver:  Solving for Ux, Initial residual = 8.79514e-07, Final residual = 8.79514e-07, No Iterations 0
smoothSolver:  Solving for Uy, Initial residual = 0.224612, Final residual = 5.95288e-07, No Iterations 16
DICPCG:  Solving for p, Initial residual = 0.578924, Final residual = 0.0275233, No Iterations 7
time step continuity errors : sum local = 1.74921e-11, global = -2.2387e-19, cumulative = -2.15501e-18
DICPCG:  Solving for p, Initial residual = 0.227316, Final residual = 8.40179e-07, No Iterations 150
time step continuity errors : sum local = 5.14478e-16, global = 7.06564e-20, cumulative = -2.08435e-18
ExecutionTime = 55.83 s  ClockTime = 55 s

Time = 0.997

Courant Number mean: 0.166885 max: 0.249973
smoothSolver:  Solving for Ux, Initial residual = 8.76196e-07, Final residual = 8.76196e-07, No Iterations 0
smoothSolver:  Solving for Uy, Initial residual = 0.230111, Final residual = 6.76291e-07, No Iterations 16
DICPCG:  Solving for p, Initial residual = 0.587258, Final residual = 0.0264159, No Iterations 9
time step continuity errors : sum local = 1.68945e-11, global = 3.52695e-21, cumulative = -2.08083e-18
DICPCG:  Solving for p, Initial residual = 0.232595, Final residual = 8.96814e-07, No Iterations 150
time step continuity errors : sum local = 5.35248e-16, global = 4.22288e-20, cumulative = -2.0386e-18
ExecutionTime = 55.87 s  ClockTime = 56 s

Time = 0.998

Courant Number mean: 0.166885 max: 0.249973
smoothSolver:  Solving for Ux, Initial residual = 8.72884e-07, Final residual = 8.72884e-07, No Iterations 0
smoothSolver:  Solving for Uy, Initial residual = 0.218592, Final residual = 7.04388e-07, No Iterations 16
DICPCG:  Solving for p, Initial residual = 0.610403, Final residual = 0.0297654, No Iterations 8
time step continuity errors : sum local = 1.93961e-11, global = 9.12339e-20, cumulative = -1.94736e-18
DICPCG:  Solving for p, Initial residual = 0.234602, Final residual = 8.40801e-07, No Iterations 149
time step continuity errors : sum local = 5.30668e-16, global = -2.64703e-20, cumulative = -1.97383e-18
ExecutionTime = 55.92 s  ClockTime = 56 s

Time = 0.999

Courant Number mean: 0.166886 max: 0.249973
smoothSolver:  Solving for Ux, Initial residual = 8.69579e-07, Final residual = 8.69579e-07, No Iterations 0
smoothSolver:  Solving for Uy, Initial residual = 0.238077, Final residual = 8.35051e-07, No Iterations 16
DICPCG:  Solving for p, Initial residual = 0.605381, Final residual = 0.0257805, No Iterations 10
time step continuity errors : sum local = 1.78681e-11, global = -1.9761e-19, cumulative = -2.17144e-18
DICPCG:  Solving for p, Initial residual = 0.232808, Final residual = 8.42788e-07, No Iterations 151
time step continuity errors : sum local = 5.20054e-16, global = -2.92127e-20, cumulative = -2.20066e-18
ExecutionTime = 55.96 s  ClockTime = 56 s

Time = 1

Courant Number mean: 0.166886 max: 0.249973
smoothSolver:  Solving for Ux, Initial residual = 8.66281e-07, Final residual = 8.66281e-07, No Iterations 0
smoothSolver:  Solving for Uy, Initial residual = 0.223634, Final residual = 9.86113e-07, No Iterations 16
DICPCG:  Solving for p, Initial residual = 0.585155, Final residual = 0.0290935, No Iterations 11
time step continuity errors : sum local = 2.04358e-11, global = -2.10159e-20, cumulative = -2.22167e-18
DICPCG:  Solving for p, Initial residual = 0.239977, Final residual = 9.78256e-07, No Iterations 151
time step continuity errors : sum local = 6.0672e-16, global = 2.72971e-19, cumulative = -1.9487e-18
ExecutionTime = 56.03 s  ClockTime = 56 s

End

