/*---------------------------------------------------------------------------*\
  =========                 |
  \\      /  F ield         | OpenFOAM: The Open Source CFD Toolbox
   \\    /   O peration     | Website:  https://openfoam.org
    \\  /    A nd           | Version:  7
     \\/     M anipulation  |
\*---------------------------------------------------------------------------*/
Build  : 7-7dc73e32f723
Exec   : blockMesh
Date   : Nov 23 2020
Time   : 18:18:02
Host   : "DESKTOP-VSJ4QNK"
PID    : 14013
I/O    : uncollated
Case   : /home/anoldfriend/OpenFOAM/anoldfriend-7/applications/test/incompressible/poiseuilleFlow
nProcs : 1
sigFpe : Enabling floating point exception trapping (FOAM_SIGFPE).
fileModificationChecking : Monitoring run-time modified files using timeStampMaster (fileModificationSkew 10)
allowSystemOperations : Allowing user-supplied system call operations

// * * * * * * * * * * * * * * * * * * * * * * * * * * * * * * * * * * * * * //
Create time

Deleting polyMesh directory
    "/home/anoldfriend/OpenFOAM/anoldfriend-7/applications/test/incompressible/poiseuilleFlow/constant/polyMesh"
Creating block mesh from
    "/home/anoldfriend/OpenFOAM/anoldfriend-7/applications/test/incompressible/poiseuilleFlow/system/blockMeshDict"
Creating block edges
No non-planar block faces defined
Creating topology blocks
Creating topology patches

Creating block mesh topology

Check topology

	Basic statistics
		Number of internal faces : 0
		Number of boundary faces : 6
		Number of defined boundary faces : 6
		Number of undefined boundary faces : 0
	Checking patch -> block consistency

Creating block offsets
Creating merge list .

Creating polyMesh from blockMesh
Creating patches
Creating cells
Creating points with scale 0.1
    Block 0 cell size :
        i : 0.005 .. 0.005
        j : 0.00230395 .. 0.00230395
        k : 0.01

Writing polyMesh
----------------
Mesh Information
----------------
  boundingBox: (0 0 0) (1 0.1 0.01)
  nPoints: 12462
  nCells: 6000
  nFaces: 24230
  nInternalFaces: 11770
----------------
Patches
----------------
  patch 0 (start: 11770 size: 30) name: velocity-inlet
  patch 1 (start: 11800 size: 30) name: velocity-outlet
  patch 2 (start: 11830 size: 400) name: fixedWalls
  patch 3 (start: 12230 size: 12000) name: frontAndBack

End

/*---------------------------------------------------------------------------*\
  =========                 |
  \\      /  F ield         | OpenFOAM: The Open Source CFD Toolbox
   \\    /   O peration     | Website:  https://openfoam.org
    \\  /    A nd           | Version:  7
     \\/     M anipulation  |
\*---------------------------------------------------------------------------*/
Build  : 7-7dc73e32f723
Exec   : checkMesh
Date   : Nov 23 2020
Time   : 18:18:02
Host   : "DESKTOP-VSJ4QNK"
PID    : 14015
I/O    : uncollated
Case   : /home/anoldfriend/OpenFOAM/anoldfriend-7/applications/test/incompressible/poiseuilleFlow
nProcs : 1
sigFpe : Enabling floating point exception trapping (FOAM_SIGFPE).
fileModificationChecking : Monitoring run-time modified files using timeStampMaster (fileModificationSkew 10)
allowSystemOperations : Allowing user-supplied system call operations

// * * * * * * * * * * * * * * * * * * * * * * * * * * * * * * * * * * * * * //
Create time

Create polyMesh for time = 0

Time = 0

Mesh stats
    points:           12462
    internal points:  0
    faces:            24230
    internal faces:   11770
    cells:            6000
    faces per cell:   6
    boundary patches: 4
    point zones:      0
    face zones:       0
    cell zones:       0

Overall number of cells of each type:
    hexahedra:     6000
    prisms:        0
    wedges:        0
    pyramids:      0
    tet wedges:    0
    tetrahedra:    0
    polyhedra:     0

Checking topology...
    Boundary definition OK.
    Cell to face addressing OK.
    Point usage OK.
    Upper triangular ordering OK.
    Face vertices OK.
    Number of regions: 1 (OK).

Checking patch topology for multiply connected surfaces...
    Patch               Faces    Points   Surface topology                  
    velocity-inlet      30       62       ok (non-closed singly connected)  
    velocity-outlet     30       62       ok (non-closed singly connected)  
    fixedWalls          400      804      ok (non-closed singly connected)  
    frontAndBack        12000    12462    ok (non-closed singly connected)  

Checking geometry...
    Overall domain bounding box (0 0 0) (1 0.1 0.01)
    Mesh has 2 geometric (non-empty/wedge) directions (1 1 0)
    Mesh has 2 solution (non-empty) directions (1 1 0)
    All edges aligned with or perpendicular to non-empty directions.
    Boundary openness (-2.51821e-18 3.96808e-19 -1.61394e-17) OK.
    Max cell openness = 2.18527e-16 OK.
    Max aspect ratio = 2.17019 OK.
    Minimum face area = 1.15198e-05. Maximum face area = 5e-05.  Face area magnitudes OK.
    Min volume = 1.15198e-07. Max volume = 2.30395e-07.  Total volume = 0.001.  Cell volumes OK.
    Mesh non-orthogonality Max: 0 average: 0
    Non-orthogonality check OK.
    Face pyramids OK.
    Max skewness = 1.78397e-13 OK.
    Coupled point location match (average 0) OK.

Mesh OK.

End

/*---------------------------------------------------------------------------*\
  =========                 |
  \\      /  F ield         | OpenFOAM: The Open Source CFD Toolbox
   \\    /   O peration     | Website:  https://openfoam.org
    \\  /    A nd           | Version:  7
     \\/     M anipulation  |
\*---------------------------------------------------------------------------*/
Build  : 7-7dc73e32f723
Exec   : icoFoam
Date   : Nov 23 2020
Time   : 18:18:03
Host   : "DESKTOP-VSJ4QNK"
PID    : 14017
I/O    : uncollated
Case   : /home/anoldfriend/OpenFOAM/anoldfriend-7/applications/test/incompressible/poiseuilleFlow
nProcs : 1
sigFpe : Enabling floating point exception trapping (FOAM_SIGFPE).
fileModificationChecking : Monitoring run-time modified files using timeStampMaster (fileModificationSkew 10)
allowSystemOperations : Allowing user-supplied system call operations

// * * * * * * * * * * * * * * * * * * * * * * * * * * * * * * * * * * * * * //
Create time

Create mesh for time = 0

Reading transportProperties

Reading field p

Reading field U

Using dynamicCode for patch velocity-inlet on field U at line 28 in "/home/anoldfriend/OpenFOAM/anoldfriend-7/applications/test/incompressible/poiseuilleFlow/0/U.boundaryField.velocity-inlet"
Reading/calculating face flux field phi


Starting time loop

--> FOAM Warning : 
    From function void Foam::particle::locate(const vector&, Foam::label, bool, Foam::string)
    in file particle/particle.C at line 495
    Particle initialised with a location outside of the mesh.
--> FOAM Warning : 
    From function void Foam::particle::locate(const vector&, Foam::label, bool, Foam::string)
    in file particle/particle.C at line 495
    Particle initialised with a location outside of the mesh.
--> FOAM Warning : 
    From function void Foam::particle::locate(const vector&, Foam::label, bool, Foam::string)
    in file particle/particle.C at line 495
    Particle initialised with a location outside of the mesh.
Reading set description:
    line

Time = 0.005

Courant Number mean: 0.09975 max: 0.1
smoothSolver:  Solving for Ux, Initial residual = 1, Final residual = 8.50526e-07, No Iterations 38
smoothSolver:  Solving for Uy, Initial residual = 0, Final residual = 0, No Iterations 0
DICPCG:  Solving for p, Initial residual = 1, Final residual = 0.0491961, No Iterations 121
time step continuity errors : sum local = 9.89429e-06, global = -1.0846e-19, cumulative = -1.0846e-19
DICPCG:  Solving for p, Initial residual = 0.1825, Final residual = 7.50278e-07, No Iterations 149
time step continuity errors : sum local = 7.79859e-10, global = -7.74057e-20, cumulative = -1.85866e-19
ExecutionTime = 0.33 s  ClockTime = 0 s

Time = 0.01

Courant Number mean: 0.100543 max: 0.1522
smoothSolver:  Solving for Ux, Initial residual = 0.0967506, Final residual = 9.55091e-07, No Iterations 31
smoothSolver:  Solving for Uy, Initial residual = 0.308865, Final residual = 8.73022e-07, No Iterations 37
DICPCG:  Solving for p, Initial residual = 0.782019, Final residual = 0.030631, No Iterations 122
time step continuity errors : sum local = 1.20273e-05, global = 1.04724e-19, cumulative = -8.11412e-20
DICPCG:  Solving for p, Initial residual = 0.420364, Final residual = 9.9145e-07, No Iterations 150
time step continuity errors : sum local = 5.46365e-10, global = -8.79503e-20, cumulative = -1.69091e-19
ExecutionTime = 0.39 s  ClockTime = 0 s

Time = 0.015

Courant Number mean: 0.100394 max: 0.149813
smoothSolver:  Solving for Ux, Initial residual = 0.032463, Final residual = 9.56551e-07, No Iterations 27
smoothSolver:  Solving for Uy, Initial residual = 0.513019, Final residual = 7.77897e-07, No Iterations 39
DICPCG:  Solving for p, Initial residual = 0.828911, Final residual = 0.0355224, No Iterations 116
time step continuity errors : sum local = 9.32418e-06, global = -1.85603e-19, cumulative = -3.54694e-19
DICPCG:  Solving for p, Initial residual = 0.577072, Final residual = 7.64507e-07, No Iterations 150
time step continuity errors : sum local = 1.97926e-10, global = -8.13648e-20, cumulative = -4.36059e-19
ExecutionTime = 0.45 s  ClockTime = 0 s

Time = 0.02

Courant Number mean: 0.100303 max: 0.149701
smoothSolver:  Solving for Ux, Initial residual = 0.0200065, Final residual = 7.50925e-07, No Iterations 27
smoothSolver:  Solving for Uy, Initial residual = 0.398485, Final residual = 8.41151e-07, No Iterations 38
DICPCG:  Solving for p, Initial residual = 0.82544, Final residual = 0.0411681, No Iterations 62
time step continuity errors : sum local = 1.03708e-05, global = -1.43797e-19, cumulative = -5.79856e-19
DICPCG:  Solving for p, Initial residual = 0.600168, Final residual = 8.00318e-07, No Iterations 150
time step continuity errors : sum local = 1.62364e-10, global = 2.84946e-20, cumulative = -5.51362e-19
ExecutionTime = 0.49 s  ClockTime = 0 s

Time = 0.025

Courant Number mean: 0.100225 max: 0.149707
smoothSolver:  Solving for Ux, Initial residual = 0.0151165, Final residual = 9.4888e-07, No Iterations 29
smoothSolver:  Solving for Uy, Initial residual = 0.588643, Final residual = 8.8873e-07, No Iterations 39
DICPCG:  Solving for p, Initial residual = 0.893006, Final residual = 0.0351224, No Iterations 121
time step continuity errors : sum local = 7.05319e-06, global = 3.43621e-20, cumulative = -5.16999e-19
DICPCG:  Solving for p, Initial residual = 0.35572, Final residual = 5.99394e-07, No Iterations 150
time step continuity errors : sum local = 2.08764e-10, global = -8.69532e-20, cumulative = -6.03953e-19
ExecutionTime = 0.55 s  ClockTime = 0 s

Time = 0.03

Courant Number mean: 0.10021 max: 0.150561
smoothSolver:  Solving for Ux, Initial residual = 0.00974753, Final residual = 8.69026e-07, No Iterations 24
smoothSolver:  Solving for Uy, Initial residual = 0.508088, Final residual = 9.77536e-07, No Iterations 38
DICPCG:  Solving for p, Initial residual = 0.799898, Final residual = 0.0374267, No Iterations 60
time step continuity errors : sum local = 8.63821e-06, global = 1.80532e-20, cumulative = -5.85899e-19
DICPCG:  Solving for p, Initial residual = 0.591314, Final residual = 7.23836e-07, No Iterations 150
time step continuity errors : sum local = 1.22188e-10, global = 1.81598e-20, cumulative = -5.6774e-19
ExecutionTime = 0.6 s  ClockTime = 0 s

Time = 0.035

Courant Number mean: 0.100147 max: 0.149746
smoothSolver:  Solving for Ux, Initial residual = 0.00956888, Final residual = 8.20537e-07, No Iterations 28
smoothSolver:  Solving for Uy, Initial residual = 0.746379, Final residual = 7.34075e-07, No Iterations 40
DICPCG:  Solving for p, Initial residual = 0.892783, Final residual = 0.0397445, No Iterations 121
time step continuity errors : sum local = 6.94949e-06, global = -1.73902e-19, cumulative = -7.41642e-19
DICPCG:  Solving for p, Initial residual = 0.340234, Final residual = 7.11628e-07, No Iterations 150
time step continuity errors : sum local = 2.2922e-10, global = -1.09358e-19, cumulative = -8.51e-19
ExecutionTime = 0.66 s  ClockTime = 0 s

Time = 0.04

Courant Number mean: 0.100166 max: 0.150986
smoothSolver:  Solving for Ux, Initial residual = 0.00522523, Final residual = 9.60113e-07, No Iterations 22
smoothSolver:  Solving for Uy, Initial residual = 0.540973, Final residual = 7.36198e-07, No Iterations 39
DICPCG:  Solving for p, Initial residual = 0.785817, Final residual = 0.0353151, No Iterations 10
time step continuity errors : sum local = 7.11685e-06, global = 1.38098e-19, cumulative = -7.12903e-19
DICPCG:  Solving for p, Initial residual = 0.577462, Final residual = 7.46082e-07, No Iterations 150
time step continuity errors : sum local = 1.13955e-10, global = 9.36475e-20, cumulative = -6.19255e-19
ExecutionTime = 0.7 s  ClockTime = 0 s

Time = 0.045

Courant Number mean: 0.100108 max: 0.149929
smoothSolver:  Solving for Ux, Initial residual = 0.00951346, Final residual = 7.88169e-07, No Iterations 29
smoothSolver:  Solving for Uy, Initial residual = 0.813615, Final residual = 8.83511e-07, No Iterations 40
DICPCG:  Solving for p, Initial residual = 0.898441, Final residual = 0.0341822, No Iterations 121
time step continuity errors : sum local = 5.18511e-06, global = 1.97604e-19, cumulative = -4.21651e-19
DICPCG:  Solving for p, Initial residual = 0.29471, Final residual = 9.52299e-07, No Iterations 149
time step continuity errors : sum local = 3.10761e-10, global = -8.74937e-20, cumulative = -5.09145e-19
ExecutionTime = 0.76 s  ClockTime = 0 s

Time = 0.05

Courant Number mean: 0.100137 max: 0.150983
smoothSolver:  Solving for Ux, Initial residual = 0.00323724, Final residual = 7.96804e-07, No Iterations 21
smoothSolver:  Solving for Uy, Initial residual = 0.546384, Final residual = 9.43341e-07, No Iterations 38
DICPCG:  Solving for p, Initial residual = 0.758333, Final residual = 0.0371859, No Iterations 18
time step continuity errors : sum local = 6.41032e-06, global = -1.65068e-19, cumulative = -6.74213e-19
DICPCG:  Solving for p, Initial residual = 0.555308, Final residual = 8.62723e-07, No Iterations 148
time step continuity errors : sum local = 1.12142e-10, global = -1.56895e-19, cumulative = -8.31109e-19
ExecutionTime = 0.8 s  ClockTime = 0 s

Time = 0.055

Courant Number mean: 0.100091 max: 0.150047
smoothSolver:  Solving for Ux, Initial residual = 0.00881433, Final residual = 9.65341e-07, No Iterations 28
smoothSolver:  Solving for Uy, Initial residual = 0.852099, Final residual = 8.19659e-07, No Iterations 40
DICPCG:  Solving for p, Initial residual = 0.875122, Final residual = 0.0352976, No Iterations 121
time step continuity errors : sum local = 4.70263e-06, global = 2.07912e-20, cumulative = -8.10317e-19
DICPCG:  Solving for p, Initial residual = 0.281797, Final residual = 8.86177e-07, No Iterations 149
time step continuity errors : sum local = 2.6023e-10, global = 2.47086e-20, cumulative = -7.85609e-19
ExecutionTime = 0.86 s  ClockTime = 0 s

Time = 0.06

Courant Number mean: 0.100125 max: 0.151023
smoothSolver:  Solving for Ux, Initial residual = 0.00233017, Final residual = 8.04048e-07, No Iterations 21
smoothSolver:  Solving for Uy, Initial residual = 0.58811, Final residual = 8.74567e-07, No Iterations 39
DICPCG:  Solving for p, Initial residual = 0.729023, Final residual = 0.0296409, No Iterations 10
time step continuity errors : sum local = 4.59866e-06, global = -1.40526e-19, cumulative = -9.26134e-19
DICPCG:  Solving for p, Initial residual = 0.545783, Final residual = 7.39135e-07, No Iterations 150
time step continuity errors : sum local = 8.25954e-11, global = 4.6736e-21, cumulative = -9.21461e-19
ExecutionTime = 0.9 s  ClockTime = 1 s

Time = 0.065

Courant Number mean: 0.100086 max: 0.150144
smoothSolver:  Solving for Ux, Initial residual = 0.00797657, Final residual = 8.63333e-07, No Iterations 28
smoothSolver:  Solving for Uy, Initial residual = 0.860276, Final residual = 9.89491e-07, No Iterations 40
DICPCG:  Solving for p, Initial residual = 0.836322, Final residual = 0.0357474, No Iterations 121
time step continuity errors : sum local = 3.94856e-06, global = 1.00771e-20, cumulative = -9.11384e-19
DICPCG:  Solving for p, Initial residual = 0.25549, Final residual = 8.85812e-07, No Iterations 149
time step continuity errors : sum local = 2.2489e-10, global = 2.69752e-20, cumulative = -8.84408e-19
ExecutionTime = 0.96 s  ClockTime = 1 s

Time = 0.07

Courant Number mean: 0.100114 max: 0.150826
smoothSolver:  Solving for Ux, Initial residual = 0.00193919, Final residual = 8.24892e-07, No Iterations 21
smoothSolver:  Solving for Uy, Initial residual = 0.563522, Final residual = 8.1834e-07, No Iterations 39
DICPCG:  Solving for p, Initial residual = 0.696276, Final residual = 0.0304861, No Iterations 10
time step continuity errors : sum local = 4.07228e-06, global = -1.78554e-19, cumulative = -1.06296e-18
DICPCG:  Solving for p, Initial residual = 0.524803, Final residual = 7.48921e-07, No Iterations 148
time step continuity errors : sum local = 7.25332e-11, global = -1.35258e-19, cumulative = -1.19822e-18
ExecutionTime = 1 s  ClockTime = 1 s

Time = 0.075

Courant Number mean: 0.100084 max: 0.150151
smoothSolver:  Solving for Ux, Initial residual = 0.00675231, Final residual = 9.92939e-07, No Iterations 27
smoothSolver:  Solving for Uy, Initial residual = 0.857057, Final residual = 9.31638e-07, No Iterations 40
DICPCG:  Solving for p, Initial residual = 0.793286, Final residual = 0.0311757, No Iterations 121
time step continuity errors : sum local = 3.04438e-06, global = -2.39965e-20, cumulative = -1.22222e-18
DICPCG:  Solving for p, Initial residual = 0.248962, Final residual = 8.13374e-07, No Iterations 149
time step continuity errors : sum local = 1.78091e-10, global = -4.01272e-21, cumulative = -1.22623e-18
ExecutionTime = 1.05 s  ClockTime = 1 s

Time = 0.08

Courant Number mean: 0.100107 max: 0.151017
smoothSolver:  Solving for Ux, Initial residual = 0.00161784, Final residual = 7.7388e-07, No Iterations 21
smoothSolver:  Solving for Uy, Initial residual = 0.535625, Final residual = 9.82106e-07, No Iterations 38
DICPCG:  Solving for p, Initial residual = 0.654865, Final residual = 0.0305847, No Iterations 10
time step continuity errors : sum local = 3.51813e-06, global = 6.54507e-21, cumulative = -1.21968e-18
DICPCG:  Solving for p, Initial residual = 0.496179, Final residual = 9.24304e-07, No Iterations 148
time step continuity errors : sum local = 7.66682e-11, global = -7.80895e-20, cumulative = -1.29777e-18
ExecutionTime = 1.09 s  ClockTime = 1 s

Time = 0.085

Courant Number mean: 0.100083 max: 0.150132
smoothSolver:  Solving for Ux, Initial residual = 0.00550744, Final residual = 8.0095e-07, No Iterations 27
smoothSolver:  Solving for Uy, Initial residual = 0.850869, Final residual = 9.06419e-07, No Iterations 40
DICPCG:  Solving for p, Initial residual = 0.745007, Final residual = 0.0283934, No Iterations 121
time step continuity errors : sum local = 2.46963e-06, global = -1.43869e-19, cumulative = -1.44164e-18
DICPCG:  Solving for p, Initial residual = 0.243826, Final residual = 7.66762e-07, No Iterations 149
time step continuity errors : sum local = 1.43741e-10, global = -3.31236e-20, cumulative = -1.47477e-18
ExecutionTime = 1.16 s  ClockTime = 1 s

Time = 0.09

Courant Number mean: 0.100102 max: 0.151086
smoothSolver:  Solving for Ux, Initial residual = 0.00134502, Final residual = 9.29367e-07, No Iterations 20
smoothSolver:  Solving for Uy, Initial residual = 0.517165, Final residual = 9.31924e-07, No Iterations 38
DICPCG:  Solving for p, Initial residual = 0.61274, Final residual = 0.0294973, No Iterations 10
time step continuity errors : sum local = 2.98208e-06, global = 6.07978e-22, cumulative = -1.47416e-18
DICPCG:  Solving for p, Initial residual = 0.467513, Final residual = 8.22193e-07, No Iterations 148
time step continuity errors : sum local = 5.96742e-11, global = -1.59509e-19, cumulative = -1.63367e-18
ExecutionTime = 1.2 s  ClockTime = 1 s

Time = 0.095

Courant Number mean: 0.100082 max: 0.150153
smoothSolver:  Solving for Ux, Initial residual = 0.00438944, Final residual = 8.71683e-07, No Iterations 26
smoothSolver:  Solving for Uy, Initial residual = 0.835805, Final residual = 8.91747e-07, No Iterations 40
DICPCG:  Solving for p, Initial residual = 0.689634, Final residual = 0.0265931, No Iterations 121
time step continuity errors : sum local = 2.08286e-06, global = -7.96784e-20, cumulative = -1.71335e-18
DICPCG:  Solving for p, Initial residual = 0.238378, Final residual = 7.31204e-07, No Iterations 149
time step continuity errors : sum local = 1.17236e-10, global = -2.09467e-19, cumulative = -1.92281e-18
ExecutionTime = 1.25 s  ClockTime = 1 s

Time = 0.1

Courant Number mean: 0.100098 max: 0.151085
smoothSolver:  Solving for Ux, Initial residual = 0.00110886, Final residual = 7.75293e-07, No Iterations 20
smoothSolver:  Solving for Uy, Initial residual = 0.499501, Final residual = 8.94708e-07, No Iterations 38
DICPCG:  Solving for p, Initial residual = 0.570538, Final residual = 0.0274632, No Iterations 10
time step continuity errors : sum local = 2.48693e-06, global = -3.77835e-20, cumulative = -1.9606e-18
DICPCG:  Solving for p, Initial residual = 0.433979, Final residual = 7.77327e-07, No Iterations 148
time step continuity errors : sum local = 5.06936e-11, global = -1.0278e-20, cumulative = -1.97087e-18
ExecutionTime = 1.32 s  ClockTime = 1 s

Time = 0.105

Courant Number mean: 0.100082 max: 0.150234
smoothSolver:  Solving for Ux, Initial residual = 0.00345418, Final residual = 9.37189e-07, No Iterations 25
smoothSolver:  Solving for Uy, Initial residual = 0.81529, Final residual = 8.65843e-07, No Iterations 40
DICPCG:  Solving for p, Initial residual = 0.627974, Final residual = 0.022627, No Iterations 121
time step continuity errors : sum local = 1.62682e-06, global = -3.74237e-20, cumulative = -2.0083e-18
DICPCG:  Solving for p, Initial residual = 0.231272, Final residual = 7.08455e-07, No Iterations 149
time step continuity errors : sum local = 9.76637e-11, global = -3.64924e-20, cumulative = -2.04479e-18
ExecutionTime = 1.39 s  ClockTime = 1 s

Time = 0.11

Courant Number mean: 0.100095 max: 0.151051
smoothSolver:  Solving for Ux, Initial residual = 0.000902401, Final residual = 8.70571e-07, No Iterations 19
smoothSolver:  Solving for Uy, Initial residual = 0.47514, Final residual = 8.4166e-07, No Iterations 38
DICPCG:  Solving for p, Initial residual = 0.525363, Final residual = 0.0252358, No Iterations 10
time step continuity errors : sum local = 2.06236e-06, global = -9.24726e-20, cumulative = -2.13726e-18
DICPCG:  Solving for p, Initial residual = 0.397325, Final residual = 6.59838e-07, No Iterations 148
time step continuity errors : sum local = 3.90002e-11, global = -6.45521e-20, cumulative = -2.20182e-18
ExecutionTime = 1.43 s  ClockTime = 1 s

Time = 0.115

Courant Number mean: 0.100081 max: 0.150332
smoothSolver:  Solving for Ux, Initial residual = 0.00269263, Final residual = 9.99007e-07, No Iterations 24
smoothSolver:  Solving for Uy, Initial residual = 0.788528, Final residual = 8.37905e-07, No Iterations 40
DICPCG:  Solving for p, Initial residual = 0.565271, Final residual = 0.0212673, No Iterations 121
time step continuity errors : sum local = 1.41615e-06, global = -1.79702e-20, cumulative = -2.21979e-18
DICPCG:  Solving for p, Initial residual = 0.222597, Final residual = 9.89845e-07, No Iterations 148
time step continuity errors : sum local = 1.18187e-10, global = -1.72284e-19, cumulative = -2.39207e-18
ExecutionTime = 1.49 s  ClockTime = 1 s

Time = 0.12

Courant Number mean: 0.100092 max: 0.151004
smoothSolver:  Solving for Ux, Initial residual = 0.000726092, Final residual = 9.6216e-07, No Iterations 18
smoothSolver:  Solving for Uy, Initial residual = 0.453936, Final residual = 8.03503e-07, No Iterations 38
DICPCG:  Solving for p, Initial residual = 0.480669, Final residual = 0.0227637, No Iterations 10
time step continuity errors : sum local = 1.70186e-06, global = 8.49359e-20, cumulative = -2.30713e-18
DICPCG:  Solving for p, Initial residual = 0.361723, Final residual = 9.80236e-07, No Iterations 147
time step continuity errors : sum local = 5.32722e-11, global = -1.78768e-19, cumulative = -2.4859e-18
ExecutionTime = 1.54 s  ClockTime = 1 s

Time = 0.125

Courant Number mean: 0.100081 max: 0.150399
smoothSolver:  Solving for Ux, Initial residual = 0.00208781, Final residual = 7.6875e-07, No Iterations 24
smoothSolver:  Solving for Uy, Initial residual = 0.75512, Final residual = 8.02966e-07, No Iterations 40
DICPCG:  Solving for p, Initial residual = 0.504431, Final residual = 0.0191189, No Iterations 121
time step continuity errors : sum local = 1.1883e-06, global = -7.26916e-20, cumulative = -2.55859e-18
DICPCG:  Solving for p, Initial residual = 0.211838, Final residual = 9.39673e-07, No Iterations 148
time step continuity errors : sum local = 9.80864e-11, global = 1.34908e-20, cumulative = -2.5451e-18
ExecutionTime = 1.58 s  ClockTime = 1 s

Time = 0.13

Courant Number mean: 0.10009 max: 0.150955
smoothSolver:  Solving for Ux, Initial residual = 0.00058, Final residual = 7.63206e-07, No Iterations 18
smoothSolver:  Solving for Uy, Initial residual = 0.426911, Final residual = 7.5182e-07, No Iterations 38
DICPCG:  Solving for p, Initial residual = 0.434853, Final residual = 0.020484, No Iterations 10
time step continuity errors : sum local = 1.40981e-06, global = 7.26957e-20, cumulative = -2.47241e-18
DICPCG:  Solving for p, Initial residual = 0.324099, Final residual = 8.60056e-07, No Iterations 147
time step continuity errors : sum local = 4.34623e-11, global = -1.02681e-19, cumulative = -2.57509e-18
ExecutionTime = 1.62 s  ClockTime = 1 s

Time = 0.135

Courant Number mean: 0.10008 max: 0.150447
smoothSolver:  Solving for Ux, Initial residual = 0.00161513, Final residual = 8.13983e-07, No Iterations 23
smoothSolver:  Solving for Uy, Initial residual = 0.713144, Final residual = 7.58593e-07, No Iterations 40
DICPCG:  Solving for p, Initial residual = 0.445229, Final residual = 0.016489, No Iterations 121
time step continuity errors : sum local = 9.67606e-07, global = 5.20607e-21, cumulative = -2.56988e-18
DICPCG:  Solving for p, Initial residual = 0.199236, Final residual = 8.76121e-07, No Iterations 148
time step continuity errors : sum local = 8.08853e-11, global = -1.27554e-20, cumulative = -2.58264e-18
ExecutionTime = 1.68 s  ClockTime = 1 s

Time = 0.14

Courant Number mean: 0.100088 max: 0.150908
smoothSolver:  Solving for Ux, Initial residual = 0.000460983, Final residual = 8.31918e-07, No Iterations 17
smoothSolver:  Solving for Uy, Initial residual = 0.39724, Final residual = 9.56597e-07, No Iterations 37
DICPCG:  Solving for p, Initial residual = 0.388731, Final residual = 0.0182204, No Iterations 10
time step continuity errors : sum local = 1.16524e-06, global = -1.26921e-20, cumulative = -2.59533e-18
DICPCG:  Solving for p, Initial residual = 0.28566, Final residual = 7.55277e-07, No Iterations 147
time step continuity errors : sum local = 3.59445e-11, global = -1.26064e-19, cumulative = -2.72139e-18
ExecutionTime = 1.72 s  ClockTime = 1 s

Time = 0.145

Courant Number mean: 0.10008 max: 0.150483
smoothSolver:  Solving for Ux, Initial residual = 0.00124741, Final residual = 8.60531e-07, No Iterations 22
smoothSolver:  Solving for Uy, Initial residual = 0.663397, Final residual = 9.75735e-07, No Iterations 39
DICPCG:  Solving for p, Initial residual = 0.388828, Final residual = 0.0141257, No Iterations 121
time step continuity errors : sum local = 7.89882e-07, global = 2.43331e-20, cumulative = -2.69706e-18
DICPCG:  Solving for p, Initial residual = 0.18508, Final residual = 8.09302e-07, No Iterations 148
time step continuity errors : sum local = 6.68495e-11, global = 4.09707e-19, cumulative = -2.28735e-18
ExecutionTime = 1.77 s  ClockTime = 1 s

Time = 0.15

Courant Number mean: 0.100086 max: 0.150867
smoothSolver:  Solving for Ux, Initial residual = 0.000365622, Final residual = 9.03897e-07, No Iterations 16
smoothSolver:  Solving for Uy, Initial residual = 0.366393, Final residual = 8.78165e-07, No Iterations 37
DICPCG:  Solving for p, Initial residual = 0.343419, Final residual = 0.0160409, No Iterations 10
time step continuity errors : sum local = 9.6328e-07, global = -4.73672e-20, cumulative = -2.33472e-18
DICPCG:  Solving for p, Initial residual = 0.248994, Final residual = 6.53292e-07, No Iterations 147
time step continuity errors : sum local = 2.95999e-11, global = 1.58876e-21, cumulative = -2.33313e-18
ExecutionTime = 1.81 s  ClockTime = 1 s

Time = 0.155

Courant Number mean: 0.10008 max: 0.150512
smoothSolver:  Solving for Ux, Initial residual = 0.000961872, Final residual = 9.08602e-07, No Iterations 21
smoothSolver:  Solving for Uy, Initial residual = 0.608948, Final residual = 8.95331e-07, No Iterations 39
DICPCG:  Solving for p, Initial residual = 0.337221, Final residual = 0.0121319, No Iterations 121
time step continuity errors : sum local = 6.50326e-07, global = -7.18347e-20, cumulative = -2.40497e-18
DICPCG:  Solving for p, Initial residual = 0.169811, Final residual = 7.34515e-07, No Iterations 148
time step continuity errors : sum local = 5.49195e-11, global = -3.792e-20, cumulative = -2.44289e-18
ExecutionTime = 1.87 s  ClockTime = 1 s

Time = 0.16

Courant Number mean: 0.100085 max: 0.15083
smoothSolver:  Solving for Ux, Initial residual = 0.000289292, Final residual = 9.80942e-07, No Iterations 15
smoothSolver:  Solving for Uy, Initial residual = 0.335047, Final residual = 7.96748e-07, No Iterations 37
DICPCG:  Solving for p, Initial residual = 0.299896, Final residual = 0.0139211, No Iterations 10
time step continuity errors : sum local = 7.93802e-07, global = -6.99929e-20, cumulative = -2.51288e-18
DICPCG:  Solving for p, Initial residual = 0.214521, Final residual = 8.99428e-07, No Iterations 146
time step continuity errors : sum local = 3.92076e-11, global = -1.51527e-19, cumulative = -2.66441e-18
ExecutionTime = 1.91 s  ClockTime = 2 s

Time = 0.165

Courant Number mean: 0.100079 max: 0.150535
smoothSolver:  Solving for Ux, Initial residual = 0.000740943, Final residual = 9.58211e-07, No Iterations 20
smoothSolver:  Solving for Uy, Initial residual = 0.552059, Final residual = 8.09617e-07, No Iterations 39
DICPCG:  Solving for p, Initial residual = 0.290532, Final residual = 0.00994454, No Iterations 121
time step continuity errors : sum local = 5.13567e-07, global = -1.57742e-19, cumulative = -2.82215e-18
DICPCG:  Solving for p, Initial residual = 0.153708, Final residual = 9.15926e-07, No Iterations 147
time step continuity errors : sum local = 6.26983e-11, global = -5.21e-20, cumulative = -2.87425e-18
ExecutionTime = 1.96 s  ClockTime = 2 s

Time = 0.17

Courant Number mean: 0.100083 max: 0.150799
smoothSolver:  Solving for Ux, Initial residual = 0.000228402, Final residual = 7.70609e-07, No Iterations 15
smoothSolver:  Solving for Uy, Initial residual = 0.299188, Final residual = 9.70737e-07, No Iterations 36
DICPCG:  Solving for p, Initial residual = 0.256855, Final residual = 0.0119898, No Iterations 10
time step continuity errors : sum local = 6.55935e-07, global = -1.50896e-19, cumulative = -3.02514e-18
DICPCG:  Solving for p, Initial residual = 0.181196, Final residual = 7.50369e-07, No Iterations 146
time step continuity errors : sum local = 3.18054e-11, global = -1.53477e-20, cumulative = -3.04049e-18
ExecutionTime = 2 s  ClockTime = 2 s

Time = 0.175

Courant Number mean: 0.100079 max: 0.150553
smoothSolver:  Solving for Ux, Initial residual = 0.000571275, Final residual = 7.33139e-07, No Iterations 20
smoothSolver:  Solving for Uy, Initial residual = 0.493438, Final residual = 7.22102e-07, No Iterations 39
DICPCG:  Solving for p, Initial residual = 0.248964, Final residual = 0.00888668, No Iterations 121
time step continuity errors : sum local = 4.44306e-07, global = -6.57863e-20, cumulative = -3.10628e-18
DICPCG:  Solving for p, Initial residual = 0.137786, Final residual = 8.07571e-07, No Iterations 147
time step continuity errors : sum local = 5.11785e-11, global = -5.574e-20, cumulative = -3.16202e-18
ExecutionTime = 2.06 s  ClockTime = 2 s

Time = 0.18

Courant Number mean: 0.100082 max: 0.150773
smoothSolver:  Solving for Ux, Initial residual = 0.00018102, Final residual = 8.4058e-07, No Iterations 14
smoothSolver:  Solving for Uy, Initial residual = 0.272909, Final residual = 8.98105e-07, No Iterations 36
DICPCG:  Solving for p, Initial residual = 0.217618, Final residual = 0.0100442, No Iterations 10
time step continuity errors : sum local = 5.40764e-07, global = -2.28772e-19, cumulative = -3.39079e-18
DICPCG:  Solving for p, Initial residual = 0.15196, Final residual = 8.41974e-07, No Iterations 145
time step continuity errors : sum local = 3.55588e-11, global = -2.8144e-20, cumulative = -3.41893e-18
ExecutionTime = 2.1 s  ClockTime = 2 s

Time = 0.185

Courant Number mean: 0.100079 max: 0.150569
smoothSolver:  Solving for Ux, Initial residual = 0.000439638, Final residual = 7.72102e-07, No Iterations 19
smoothSolver:  Solving for Uy, Initial residual = 0.439182, Final residual = 8.91048e-07, No Iterations 38
DICPCG:  Solving for p, Initial residual = 0.212424, Final residual = 0.0105139, No Iterations 120
time step continuity errors : sum local = 5.11522e-07, global = -4.47007e-20, cumulative = -3.46363e-18
DICPCG:  Solving for p, Initial residual = 0.123041, Final residual = 7.051e-07, No Iterations 147
time step continuity errors : sum local = 4.18568e-11, global = 2.02445e-20, cumulative = -3.44339e-18
ExecutionTime = 2.15 s  ClockTime = 2 s

Time = 0.19

Courant Number mean: 0.100082 max: 0.150751
smoothSolver:  Solving for Ux, Initial residual = 0.000146295, Final residual = 9.33172e-07, No Iterations 13
smoothSolver:  Solving for Uy, Initial residual = 0.263385, Final residual = 9.20305e-07, No Iterations 36
DICPCG:  Solving for p, Initial residual = 0.189612, Final residual = 0.00845876, No Iterations 10
time step continuity errors : sum local = 4.52447e-07, global = -5.38859e-20, cumulative = -3.49728e-18
DICPCG:  Solving for p, Initial residual = 0.132874, Final residual = 7.33938e-07, No Iterations 145
time step continuity errors : sum local = 3.11944e-11, global = 3.5171e-21, cumulative = -3.49376e-18
ExecutionTime = 2.19 s  ClockTime = 2 s

Time = 0.195

Courant Number mean: 0.100079 max: 0.150583
smoothSolver:  Solving for Ux, Initial residual = 0.000332509, Final residual = 7.96278e-07, No Iterations 18
smoothSolver:  Solving for Uy, Initial residual = 0.39451, Final residual = 8.12058e-07, No Iterations 38
DICPCG:  Solving for p, Initial residual = 0.181597, Final residual = 0.00852504, No Iterations 103
time step continuity errors : sum local = 4.25438e-07, global = -1.60398e-19, cumulative = -3.65416e-18
DICPCG:  Solving for p, Initial residual = 0.108189, Final residual = 8.98445e-07, No Iterations 146
time step continuity errors : sum local = 5.03713e-11, global = -8.94386e-20, cumulative = -3.7436e-18
ExecutionTime = 2.24 s  ClockTime = 2 s

Time = 0.2

Courant Number mean: 0.100081 max: 0.150733
smoothSolver:  Solving for Ux, Initial residual = 0.000249626, Final residual = 7.45835e-07, No Iterations 17
smoothSolver:  Solving for Uy, Initial residual = 0.249229, Final residual = 8.78219e-07, No Iterations 36
DICPCG:  Solving for p, Initial residual = 0.165106, Final residual = 0.00808371, No Iterations 76
time step continuity errors : sum local = 3.6186e-07, global = 1.74233e-20, cumulative = -3.72617e-18
DICPCG:  Solving for p, Initial residual = 0.118992, Final residual = 9.59346e-07, No Iterations 144
time step continuity errors : sum local = 4.05796e-11, global = -1.55581e-19, cumulative = -3.88175e-18
ExecutionTime = 2.31 s  ClockTime = 2 s

Time = 0.205

Courant Number mean: 0.100078 max: 0.15059
smoothSolver:  Solving for Ux, Initial residual = 0.000121, Final residual = 7.73165e-07, No Iterations 14
smoothSolver:  Solving for Uy, Initial residual = 0.23672, Final residual = 7.87174e-07, No Iterations 37
DICPCG:  Solving for p, Initial residual = 0.136401, Final residual = 0.00659742, No Iterations 50
time step continuity errors : sum local = 3.36401e-07, global = 2.80169e-20, cumulative = -3.85374e-18
DICPCG:  Solving for p, Initial residual = 0.0895666, Final residual = 8.09146e-07, No Iterations 143
time step continuity errors : sum local = 3.90785e-11, global = 8.36125e-20, cumulative = -3.77012e-18
ExecutionTime = 2.36 s  ClockTime = 2 s

Time = 0.21

Courant Number mean: 0.10008 max: 0.150714
smoothSolver:  Solving for Ux, Initial residual = 0.000118452, Final residual = 9.21792e-07, No Iterations 14
smoothSolver:  Solving for Uy, Initial residual = 0.222389, Final residual = 8.5398e-07, No Iterations 36
DICPCG:  Solving for p, Initial residual = 0.134322, Final residual = 0.00484384, No Iterations 120
time step continuity errors : sum local = 2.13293e-07, global = -1.13128e-19, cumulative = -3.88325e-18
DICPCG:  Solving for p, Initial residual = 0.0987903, Final residual = 7.13188e-07, No Iterations 144
time step continuity errors : sum local = 2.92635e-11, global = -3.24031e-20, cumulative = -3.91565e-18
ExecutionTime = 2.42 s  ClockTime = 2 s

Time = 0.215

Courant Number mean: 0.100078 max: 0.150596
smoothSolver:  Solving for Ux, Initial residual = 5.80521e-05, Final residual = 9.91033e-07, No Iterations 10
smoothSolver:  Solving for Uy, Initial residual = 0.163462, Final residual = 7.60997e-07, No Iterations 35
DICPCG:  Solving for p, Initial residual = 0.103454, Final residual = 0.00480915, No Iterations 9
time step continuity errors : sum local = 2.42098e-07, global = 3.87426e-20, cumulative = -3.87691e-18
DICPCG:  Solving for p, Initial residual = 0.0650776, Final residual = 7.36288e-07, No Iterations 142
time step continuity errors : sum local = 3.43391e-11, global = -7.24429e-20, cumulative = -3.94936e-18
ExecutionTime = 2.45 s  ClockTime = 2 s

Time = 0.22

Courant Number mean: 0.100079 max: 0.150697
smoothSolver:  Solving for Ux, Initial residual = 0.000104908, Final residual = 8.62674e-07, No Iterations 14
smoothSolver:  Solving for Uy, Initial residual = 0.222284, Final residual = 8.17238e-07, No Iterations 37
DICPCG:  Solving for p, Initial residual = 0.112371, Final residual = 0.00422522, No Iterations 120
time step continuity errors : sum local = 1.84824e-07, global = -1.28386e-19, cumulative = -4.07774e-18
DICPCG:  Solving for p, Initial residual = 0.0813771, Final residual = 7.13399e-07, No Iterations 144
time step continuity errors : sum local = 2.92289e-11, global = -9.90484e-20, cumulative = -4.17679e-18
ExecutionTime = 2.51 s  ClockTime = 2 s

Time = 0.225

Courant Number mean: 0.100078 max: 0.150603
smoothSolver:  Solving for Ux, Initial residual = 4.80153e-05, Final residual = 8.13976e-07, No Iterations 10
smoothSolver:  Solving for Uy, Initial residual = 0.145372, Final residual = 9.73642e-07, No Iterations 34
DICPCG:  Solving for p, Initial residual = 0.0878514, Final residual = 0.00427398, No Iterations 9
time step continuity errors : sum local = 2.10238e-07, global = -3.13138e-20, cumulative = -4.2081e-18
DICPCG:  Solving for p, Initial residual = 0.0542246, Final residual = 7.2155e-07, No Iterations 142
time step continuity errors : sum local = 3.30641e-11, global = 8.83838e-20, cumulative = -4.11972e-18
ExecutionTime = 2.54 s  ClockTime = 2 s

Time = 0.23

Courant Number mean: 0.100079 max: 0.150683
smoothSolver:  Solving for Ux, Initial residual = 9.14455e-05, Final residual = 7.55936e-07, No Iterations 14
smoothSolver:  Solving for Uy, Initial residual = 0.184386, Final residual = 9.25472e-07, No Iterations 36
DICPCG:  Solving for p, Initial residual = 0.0935533, Final residual = 0.00407616, No Iterations 118
time step continuity errors : sum local = 1.77287e-07, global = 1.13137e-19, cumulative = -4.00658e-18
DICPCG:  Solving for p, Initial residual = 0.0686404, Final residual = 9.45319e-07, No Iterations 143
time step continuity errors : sum local = 3.89488e-11, global = -5.94342e-20, cumulative = -4.06602e-18
ExecutionTime = 2.59 s  ClockTime = 2 s

Time = 0.235

Courant Number mean: 0.100078 max: 0.150608
smoothSolver:  Solving for Ux, Initial residual = 4.0329e-05, Final residual = 7.38311e-07, No Iterations 10
smoothSolver:  Solving for Uy, Initial residual = 0.13785, Final residual = 7.71611e-07, No Iterations 35
DICPCG:  Solving for p, Initial residual = 0.0747782, Final residual = 0.0032441, No Iterations 10
time step continuity errors : sum local = 1.5874e-07, global = 1.75605e-20, cumulative = -4.04846e-18
DICPCG:  Solving for p, Initial residual = 0.0491157, Final residual = 7.84448e-07, No Iterations 143
time step continuity errors : sum local = 3.55214e-11, global = 1.12071e-19, cumulative = -3.93639e-18
ExecutionTime = 2.63 s  ClockTime = 2 s

Time = 0.24

Courant Number mean: 0.100078 max: 0.150674
smoothSolver:  Solving for Ux, Initial residual = 7.80607e-05, Final residual = 8.93671e-07, No Iterations 13
smoothSolver:  Solving for Uy, Initial residual = 0.136517, Final residual = 9.85697e-07, No Iterations 34
DICPCG:  Solving for p, Initial residual = 0.0744747, Final residual = 0.00268496, No Iterations 120
time step continuity errors : sum local = 1.15839e-07, global = 1.18246e-20, cumulative = -3.92456e-18
DICPCG:  Solving for p, Initial residual = 0.0535383, Final residual = 9.06756e-07, No Iterations 142
time step continuity errors : sum local = 3.72904e-11, global = -1.20449e-19, cumulative = -4.04501e-18
ExecutionTime = 2.68 s  ClockTime = 2 s

Time = 0.245

Courant Number mean: 0.100078 max: 0.150614
smoothSolver:  Solving for Ux, Initial residual = 3.20124e-05, Final residual = 7.91165e-07, No Iterations 9
smoothSolver:  Solving for Uy, Initial residual = 0.0992778, Final residual = 7.3197e-07, No Iterations 34
DICPCG:  Solving for p, Initial residual = 0.0582651, Final residual = 0.00276773, No Iterations 9
time step continuity errors : sum local = 1.33025e-07, global = 8.97796e-20, cumulative = -3.95523e-18
DICPCG:  Solving for p, Initial residual = 0.0367163, Final residual = 8.6412e-07, No Iterations 140
time step continuity errors : sum local = 3.85022e-11, global = -1.95421e-19, cumulative = -4.15065e-18
ExecutionTime = 2.72 s  ClockTime = 2 s

Time = 0.25

Courant Number mean: 0.100078 max: 0.150667
smoothSolver:  Solving for Ux, Initial residual = 6.52437e-05, Final residual = 7.61994e-07, No Iterations 13
smoothSolver:  Solving for Uy, Initial residual = 0.129201, Final residual = 9.15533e-07, No Iterations 35
DICPCG:  Solving for p, Initial residual = 0.0606228, Final residual = 0.00296842, No Iterations 103
time step continuity errors : sum local = 1.36419e-07, global = 8.32237e-20, cumulative = -4.06743e-18
DICPCG:  Solving for p, Initial residual = 0.0426576, Final residual = 7.8851e-07, No Iterations 142
time step continuity errors : sum local = 3.26149e-11, global = -4.86221e-20, cumulative = -4.11605e-18
ExecutionTime = 2.77 s  ClockTime = 2 s

Time = 0.255

Courant Number mean: 0.100078 max: 0.150619
smoothSolver:  Solving for Ux, Initial residual = 8.11848e-05, Final residual = 9.54172e-07, No Iterations 13
smoothSolver:  Solving for Uy, Initial residual = 0.111727, Final residual = 7.55382e-07, No Iterations 34
DICPCG:  Solving for p, Initial residual = 0.0540205, Final residual = 0.00246948, No Iterations 76
time step continuity errors : sum local = 1.081e-07, global = -1.50495e-19, cumulative = -4.26655e-18
DICPCG:  Solving for p, Initial residual = 0.0362813, Final residual = 7.60111e-07, No Iterations 142
time step continuity errors : sum local = 3.37692e-11, global = -1.61531e-20, cumulative = -4.2827e-18
ExecutionTime = 2.81 s  ClockTime = 2 s

Time = 0.26

Courant Number mean: 0.100078 max: 0.150663
smoothSolver:  Solving for Ux, Initial residual = 3.51142e-05, Final residual = 8.01881e-07, No Iterations 10
smoothSolver:  Solving for Uy, Initial residual = 0.0767643, Final residual = 8.60531e-07, No Iterations 33
DICPCG:  Solving for p, Initial residual = 0.0469819, Final residual = 0.00216557, No Iterations 44
time step continuity errors : sum local = 9.85957e-08, global = 2.49886e-20, cumulative = -4.25771e-18
DICPCG:  Solving for p, Initial residual = 0.0318248, Final residual = 7.79267e-07, No Iterations 140
time step continuity errors : sum local = 3.29481e-11, global = 4.67216e-20, cumulative = -4.21099e-18
ExecutionTime = 2.87 s  ClockTime = 2 s

Time = 0.265

Courant Number mean: 0.100078 max: 0.150624
smoothSolver:  Solving for Ux, Initial residual = 4.70102e-05, Final residual = 7.3932e-07, No Iterations 12
smoothSolver:  Solving for Uy, Initial residual = 0.0853546, Final residual = 9.46514e-07, No Iterations 33
DICPCG:  Solving for p, Initial residual = 0.0430624, Final residual = 0.0020696, No Iterations 67
time step continuity errors : sum local = 9.62538e-08, global = -7.99365e-20, cumulative = -4.29092e-18
DICPCG:  Solving for p, Initial residual = 0.0290978, Final residual = 9.02117e-07, No Iterations 141
time step continuity errors : sum local = 3.97045e-11, global = -1.68115e-20, cumulative = -4.30774e-18
ExecutionTime = 2.9 s  ClockTime = 3 s

Time = 0.27

Courant Number mean: 0.100078 max: 0.150661
smoothSolver:  Solving for Ux, Initial residual = 6.72869e-05, Final residual = 8.25497e-07, No Iterations 13
smoothSolver:  Solving for Uy, Initial residual = 0.0677818, Final residual = 9.07316e-07, No Iterations 32
DICPCG:  Solving for p, Initial residual = 0.0392732, Final residual = 0.00184076, No Iterations 118
time step continuity errors : sum local = 7.84758e-08, global = -4.53544e-20, cumulative = -4.35309e-18
DICPCG:  Solving for p, Initial residual = 0.0262629, Final residual = 7.46813e-07, No Iterations 141
time step continuity errors : sum local = 3.22793e-11, global = -4.15815e-20, cumulative = -4.39467e-18
ExecutionTime = 2.95 s  ClockTime = 3 s

Time = 0.275

Courant Number mean: 0.100078 max: 0.150628
smoothSolver:  Solving for Ux, Initial residual = 2.09511e-05, Final residual = 7.2746e-07, No Iterations 8
smoothSolver:  Solving for Uy, Initial residual = 0.0573063, Final residual = 8.95507e-07, No Iterations 32
DICPCG:  Solving for p, Initial residual = 0.0318386, Final residual = 0.00155879, No Iterations 9
time step continuity errors : sum local = 7.09978e-08, global = -1.76417e-19, cumulative = -4.57109e-18
DICPCG:  Solving for p, Initial residual = 0.020654, Final residual = 8.4391e-07, No Iterations 139
time step continuity errors : sum local = 3.68243e-11, global = -4.86141e-20, cumulative = -4.6197e-18
ExecutionTime = 2.98 s  ClockTime = 3 s

Time = 0.28

Courant Number mean: 0.100078 max: 0.150657
smoothSolver:  Solving for Ux, Initial residual = 4.82994e-05, Final residual = 7.94013e-07, No Iterations 12
smoothSolver:  Solving for Uy, Initial residual = 0.067566, Final residual = 9.77748e-07, No Iterations 33
DICPCG:  Solving for p, Initial residual = 0.0326077, Final residual = 0.00136243, No Iterations 119
time step continuity errors : sum local = 5.80663e-08, global = 2.04455e-19, cumulative = -4.41525e-18
DICPCG:  Solving for p, Initial residual = 0.0222438, Final residual = 9.71829e-07, No Iterations 140
time step continuity errors : sum local = 4.17592e-11, global = 5.21648e-20, cumulative = -4.36308e-18
ExecutionTime = 3.06 s  ClockTime = 3 s

Time = 0.285

Courant Number mean: 0.100078 max: 0.150631
smoothSolver:  Solving for Ux, Initial residual = 1.60274e-05, Final residual = 7.71611e-07, No Iterations 7
smoothSolver:  Solving for Uy, Initial residual = 0.0467174, Final residual = 8.39581e-07, No Iterations 32
DICPCG:  Solving for p, Initial residual = 0.0251963, Final residual = 0.000972622, No Iterations 10
time step continuity errors : sum local = 4.46007e-08, global = -2.0288e-19, cumulative = -4.56596e-18
DICPCG:  Solving for p, Initial residual = 0.016251, Final residual = 8.73426e-07, No Iterations 139
time step continuity errors : sum local = 3.77935e-11, global = 4.21485e-20, cumulative = -4.52381e-18
ExecutionTime = 3.09 s  ClockTime = 3 s

Time = 0.29

Courant Number mean: 0.100078 max: 0.150653
smoothSolver:  Solving for Ux, Initial residual = 3.35898e-05, Final residual = 7.61536e-07, No Iterations 11
smoothSolver:  Solving for Uy, Initial residual = 0.0428633, Final residual = 7.41951e-07, No Iterations 32
DICPCG:  Solving for p, Initial residual = 0.0241354, Final residual = 0.00115644, No Iterations 118
time step continuity errors : sum local = 4.90667e-08, global = -1.17504e-19, cumulative = -4.64132e-18
DICPCG:  Solving for p, Initial residual = 0.0162014, Final residual = 9.75675e-07, No Iterations 138
time step continuity errors : sum local = 4.16282e-11, global = 1.04312e-19, cumulative = -4.53701e-18
ExecutionTime = 3.14 s  ClockTime = 3 s

Time = 0.295

Courant Number mean: 0.100078 max: 0.150634
smoothSolver:  Solving for Ux, Initial residual = 1.25562e-05, Final residual = 9.05739e-07, No Iterations 6
smoothSolver:  Solving for Uy, Initial residual = 0.032665, Final residual = 8.99757e-07, No Iterations 30
DICPCG:  Solving for p, Initial residual = 0.0199336, Final residual = 0.000919796, No Iterations 9
time step continuity errors : sum local = 4.17318e-08, global = -2.08398e-19, cumulative = -4.7454e-18
DICPCG:  Solving for p, Initial residual = 0.0127736, Final residual = 7.7581e-07, No Iterations 138
time step continuity errors : sum local = 3.33821e-11, global = -1.12582e-19, cumulative = -4.85799e-18
ExecutionTime = 3.17 s  ClockTime = 3 s

Time = 0.3

Courant Number mean: 0.100078 max: 0.150651
smoothSolver:  Solving for Ux, Initial residual = 2.40768e-05, Final residual = 7.46657e-07, No Iterations 10
smoothSolver:  Solving for Uy, Initial residual = 0.0360286, Final residual = 8.28133e-07, No Iterations 31
DICPCG:  Solving for p, Initial residual = 0.0192407, Final residual = 0.000701689, No Iterations 119
time step continuity errors : sum local = 2.97962e-08, global = -2.71823e-20, cumulative = -4.88517e-18
DICPCG:  Solving for p, Initial residual = 0.0130271, Final residual = 8.24799e-07, No Iterations 138
time step continuity errors : sum local = 3.51176e-11, global = -4.36164e-20, cumulative = -4.92879e-18
ExecutionTime = 3.24 s  ClockTime = 3 s

Time = 0.305

Courant Number mean: 0.100078 max: 0.150637
smoothSolver:  Solving for Ux, Initial residual = 8.96524e-06, Final residual = 8.93276e-07, No Iterations 5
smoothSolver:  Solving for Uy, Initial residual = 0.0244412, Final residual = 8.88529e-07, No Iterations 29
DICPCG:  Solving for p, Initial residual = 0.0142347, Final residual = 0.000552169, No Iterations 9
time step continuity errors : sum local = 2.5288e-08, global = -1.99291e-19, cumulative = -5.12808e-18
DICPCG:  Solving for p, Initial residual = 0.00873297, Final residual = 7.6904e-07, No Iterations 136
time step continuity errors : sum local = 3.28903e-11, global = 3.13477e-20, cumulative = -5.09673e-18
ExecutionTime = 3.27 s  ClockTime = 3 s

Time = 0.31

Courant Number mean: 0.100078 max: 0.150648
smoothSolver:  Solving for Ux, Initial residual = 1.4649e-05, Final residual = 8.4902e-07, No Iterations 8
smoothSolver:  Solving for Uy, Initial residual = 0.0271997, Final residual = 8.99434e-07, No Iterations 30
DICPCG:  Solving for p, Initial residual = 0.0130814, Final residual = 0.000455596, No Iterations 119
time step continuity errors : sum local = 1.93028e-08, global = 8.79657e-20, cumulative = -5.00876e-18
DICPCG:  Solving for p, Initial residual = 0.00863684, Final residual = 7.34126e-07, No Iterations 138
time step continuity errors : sum local = 3.1123e-11, global = -1.79528e-20, cumulative = -5.02672e-18
ExecutionTime = 3.32 s  ClockTime = 3 s

Time = 0.315

Courant Number mean: 0.100078 max: 0.150639
smoothSolver:  Solving for Ux, Initial residual = 5.916e-06, Final residual = 8.50109e-07, No Iterations 4
smoothSolver:  Solving for Uy, Initial residual = 0.0168026, Final residual = 8.45447e-07, No Iterations 28
DICPCG:  Solving for p, Initial residual = 0.00970519, Final residual = 0.000485091, No Iterations 8
time step continuity errors : sum local = 2.18767e-08, global = -4.61671e-20, cumulative = -5.07288e-18
DICPCG:  Solving for p, Initial residual = 0.0059302, Final residual = 9.53766e-07, No Iterations 135
time step continuity errors : sum local = 4.06419e-11, global = 8.88202e-20, cumulative = -4.98406e-18
ExecutionTime = 3.36 s  ClockTime = 3 s

Time = 0.32

Courant Number mean: 0.100078 max: 0.150646
smoothSolver:  Solving for Ux, Initial residual = 8.06744e-06, Final residual = 8.78862e-07, No Iterations 6
smoothSolver:  Solving for Uy, Initial residual = 0.0268446, Final residual = 7.80463e-07, No Iterations 31
DICPCG:  Solving for p, Initial residual = 0.00914411, Final residual = 0.000456061, No Iterations 119
time step continuity errors : sum local = 1.93387e-08, global = 6.22447e-20, cumulative = -4.92182e-18
DICPCG:  Solving for p, Initial residual = 0.00620859, Final residual = 9.49311e-07, No Iterations 137
time step continuity errors : sum local = 4.02581e-11, global = 1.34298e-19, cumulative = -4.78752e-18
ExecutionTime = 3.4 s  ClockTime = 3 s

Time = 0.325

Courant Number mean: 0.100078 max: 0.150641
smoothSolver:  Solving for Ux, Initial residual = 3.83079e-06, Final residual = 8.82419e-07, No Iterations 3
smoothSolver:  Solving for Uy, Initial residual = 0.0150646, Final residual = 9.47962e-07, No Iterations 28
DICPCG:  Solving for p, Initial residual = 0.00622039, Final residual = 0.000297502, No Iterations 9
time step continuity errors : sum local = 1.34576e-08, global = -1.99693e-19, cumulative = -4.98721e-18
DICPCG:  Solving for p, Initial residual = 0.00385854, Final residual = 7.20608e-07, No Iterations 135
time step continuity errors : sum local = 3.06422e-11, global = -6.61709e-20, cumulative = -5.05338e-18
ExecutionTime = 3.44 s  ClockTime = 3 s

Time = 0.33

Courant Number mean: 0.100078 max: 0.150645
smoothSolver:  Solving for Ux, Initial residual = 4.29225e-06, Final residual = 8.88666e-07, No Iterations 4
smoothSolver:  Solving for Uy, Initial residual = 0.0162296, Final residual = 8.87443e-07, No Iterations 29
DICPCG:  Solving for p, Initial residual = 0.00498104, Final residual = 0.000210434, No Iterations 119
time step continuity errors : sum local = 8.92418e-09, global = 1.80683e-20, cumulative = -5.03531e-18
DICPCG:  Solving for p, Initial residual = 0.00333246, Final residual = 8.93374e-07, No Iterations 135
time step continuity errors : sum local = 3.78787e-11, global = -1.49306e-20, cumulative = -5.05025e-18
ExecutionTime = 3.48 s  ClockTime = 3 s

Time = 0.335

Courant Number mean: 0.100078 max: 0.150643
smoothSolver:  Solving for Ux, Initial residual = 1.95291e-06, Final residual = 6.91463e-07, No Iterations 2
smoothSolver:  Solving for Uy, Initial residual = 0.00689953, Final residual = 7.5084e-07, No Iterations 26
DICPCG:  Solving for p, Initial residual = 0.0027401, Final residual = 0.000107458, No Iterations 10
time step continuity errors : sum local = 4.98671e-09, global = -1.30398e-19, cumulative = -5.18064e-18
DICPCG:  Solving for p, Initial residual = 0.00166867, Final residual = 9.14423e-07, No Iterations 132
time step continuity errors : sum local = 3.88363e-11, global = 4.52145e-20, cumulative = -5.13543e-18
ExecutionTime = 3.52 s  ClockTime = 3 s

Time = 0.34

Courant Number mean: 0.100078 max: 0.150644
smoothSolver:  Solving for Ux, Initial residual = 1.71173e-06, Final residual = 7.18952e-07, No Iterations 2
smoothSolver:  Solving for Uy, Initial residual = 0.00561093, Final residual = 9.0818e-07, No Iterations 25
DICPCG:  Solving for p, Initial residual = 0.00159769, Final residual = 7.96247e-05, No Iterations 30
time step continuity errors : sum local = 4.33627e-09, global = -1.50358e-19, cumulative = -5.28579e-18
DICPCG:  Solving for p, Initial residual = 0.00101917, Final residual = 6.81775e-07, No Iterations 132
time step continuity errors : sum local = 2.88771e-11, global = 7.34164e-20, cumulative = -5.21237e-18
ExecutionTime = 3.55 s  ClockTime = 3 s

Time = 0.345

Courant Number mean: 0.100078 max: 0.150644
smoothSolver:  Solving for Ux, Initial residual = 5.97593e-06, Final residual = 7.67186e-07, No Iterations 6
smoothSolver:  Solving for Uy, Initial residual = 0.00629596, Final residual = 9.38369e-07, No Iterations 25
DICPCG:  Solving for p, Initial residual = 0.00145004, Final residual = 6.32676e-05, No Iterations 122
time step continuity errors : sum local = 2.68083e-09, global = 2.01139e-19, cumulative = -5.01123e-18
DICPCG:  Solving for p, Initial residual = 0.00106888, Final residual = 8.65113e-07, No Iterations 134
time step continuity errors : sum local = 3.65638e-11, global = -1.45135e-19, cumulative = -5.15637e-18
ExecutionTime = 3.6 s  ClockTime = 3 s

Time = 0.35

Courant Number mean: 0.100078 max: 0.150645
smoothSolver:  Solving for Ux, Initial residual = 1.17091e-06, Final residual = 5.58089e-07, No Iterations 1
smoothSolver:  Solving for Uy, Initial residual = 0.00276611, Final residual = 8.05215e-07, No Iterations 23
DICPCG:  Solving for p, Initial residual = 0.000588293, Final residual = 2.77904e-05, No Iterations 11
time step continuity errors : sum local = 1.64131e-09, global = -1.36824e-19, cumulative = -5.29319e-18
DICPCG:  Solving for p, Initial residual = 0.000368038, Final residual = 8.71786e-07, No Iterations 128
time step continuity errors : sum local = 3.69761e-11, global = 3.81576e-20, cumulative = -5.25503e-18
ExecutionTime = 3.63 s  ClockTime = 3 s

Time = 0.355

Courant Number mean: 0.100078 max: 0.150645
smoothSolver:  Solving for Ux, Initial residual = 1.36693e-06, Final residual = 9.08364e-07, No Iterations 1
smoothSolver:  Solving for Uy, Initial residual = 0.00303426, Final residual = 9.23524e-07, No Iterations 23
DICPCG:  Solving for p, Initial residual = 0.000348589, Final residual = 1.32179e-05, No Iterations 122
time step continuity errors : sum local = 5.60568e-10, global = -2.88045e-20, cumulative = -5.28384e-18
DICPCG:  Solving for p, Initial residual = 0.000279453, Final residual = 9.77762e-07, No Iterations 130
time step continuity errors : sum local = 4.14224e-11, global = 6.47777e-20, cumulative = -5.21906e-18
ExecutionTime = 3.68 s  ClockTime = 3 s

Time = 0.36

Courant Number mean: 0.100078 max: 0.150645
smoothSolver:  Solving for Ux, Initial residual = 2.04087e-07, Final residual = 2.04087e-07, No Iterations 0
smoothSolver:  Solving for Uy, Initial residual = 0.000816446, Final residual = 7.66577e-07, No Iterations 19
DICPCG:  Solving for p, Initial residual = 0.000102307, Final residual = 4.72325e-06, No Iterations 119
time step continuity errors : sum local = 2.00079e-10, global = 2.05128e-21, cumulative = -5.21701e-18
DICPCG:  Solving for p, Initial residual = 8.75575e-05, Final residual = 7.90143e-07, No Iterations 125
time step continuity errors : sum local = 3.34771e-11, global = -1.17031e-19, cumulative = -5.33404e-18
ExecutionTime = 3.73 s  ClockTime = 3 s

Time = 0.365

Courant Number mean: 0.100078 max: 0.150645
smoothSolver:  Solving for Ux, Initial residual = 1.32331e-07, Final residual = 1.32331e-07, No Iterations 0
smoothSolver:  Solving for Uy, Initial residual = 0.000309123, Final residual = 8.96026e-07, No Iterations 16
DICPCG:  Solving for p, Initial residual = 3.66248e-05, Final residual = 1.6887e-06, No Iterations 10
time step continuity errors : sum local = 7.20343e-11, global = -1.28206e-19, cumulative = -5.46225e-18
DICPCG:  Solving for p, Initial residual = 3.26783e-05, Final residual = 8.07582e-07, No Iterations 12
time step continuity errors : sum local = 3.53922e-11, global = 7.69532e-20, cumulative = -5.38529e-18
ExecutionTime = 3.74 s  ClockTime = 3 s

Time = 0.37

Courant Number mean: 0.100078 max: 0.150645
smoothSolver:  Solving for Ux, Initial residual = 1.14241e-07, Final residual = 1.14241e-07, No Iterations 0
smoothSolver:  Solving for Uy, Initial residual = 0.000222175, Final residual = 7.7081e-07, No Iterations 16
DICPCG:  Solving for p, Initial residual = 2.56618e-05, Final residual = 9.95652e-07, No Iterations 120
time step continuity errors : sum local = 4.21763e-11, global = -9.0723e-21, cumulative = -5.39437e-18
DICPCG:  Solving for p, Initial residual = 2.40797e-05, Final residual = 7.07284e-07, No Iterations 121
time step continuity errors : sum local = 2.99616e-11, global = 8.64139e-20, cumulative = -5.30795e-18
ExecutionTime = 3.78 s  ClockTime = 3 s

Time = 0.375

Courant Number mean: 0.100078 max: 0.150645
smoothSolver:  Solving for Ux, Initial residual = 9.94517e-08, Final residual = 9.94517e-08, No Iterations 0
smoothSolver:  Solving for Uy, Initial residual = 0.000126175, Final residual = 7.92108e-07, No Iterations 14
DICPCG:  Solving for p, Initial residual = 1.48376e-05, Final residual = 9.56943e-07, No Iterations 9
time step continuity errors : sum local = 4.37644e-11, global = -4.0558e-20, cumulative = -5.34851e-18
DICPCG:  Solving for p, Initial residual = 1.44309e-05, Final residual = 8.1526e-07, No Iterations 9
time step continuity errors : sum local = 3.60329e-11, global = -1.9763e-19, cumulative = -5.54614e-18
ExecutionTime = 3.8 s  ClockTime = 3 s

Time = 0.38

Courant Number mean: 0.100078 max: 0.150645
smoothSolver:  Solving for Ux, Initial residual = 9.10235e-08, Final residual = 9.10235e-08, No Iterations 0
smoothSolver:  Solving for Uy, Initial residual = 0.000121294, Final residual = 8.83432e-07, No Iterations 14
DICPCG:  Solving for p, Initial residual = 1.45549e-05, Final residual = 8.45933e-07, No Iterations 10
time step continuity errors : sum local = 3.92521e-11, global = 2.40751e-20, cumulative = -5.52206e-18
DICPCG:  Solving for p, Initial residual = 1.38487e-05, Final residual = 9.30214e-07, No Iterations 9
time step continuity errors : sum local = 4.14396e-11, global = -1.28114e-19, cumulative = -5.65018e-18
ExecutionTime = 3.81 s  ClockTime = 3 s

Time = 0.385

Courant Number mean: 0.100078 max: 0.150645
smoothSolver:  Solving for Ux, Initial residual = 8.34436e-08, Final residual = 8.34436e-08, No Iterations 0
smoothSolver:  Solving for Uy, Initial residual = 0.000123827, Final residual = 9.85301e-07, No Iterations 14
DICPCG:  Solving for p, Initial residual = 1.27558e-05, Final residual = 8.41327e-07, No Iterations 11
time step continuity errors : sum local = 3.87676e-11, global = -1.02906e-19, cumulative = -5.75308e-18
DICPCG:  Solving for p, Initial residual = 1.21099e-05, Final residual = 8.39673e-07, No Iterations 11
time step continuity errors : sum local = 3.77757e-11, global = -2.79143e-19, cumulative = -6.03223e-18
ExecutionTime = 3.82 s  ClockTime = 3 s

Time = 0.39

Courant Number mean: 0.100078 max: 0.150645
smoothSolver:  Solving for Ux, Initial residual = 7.74154e-08, Final residual = 7.74154e-08, No Iterations 0
smoothSolver:  Solving for Uy, Initial residual = 8.00826e-05, Final residual = 7.44721e-07, No Iterations 13
DICPCG:  Solving for p, Initial residual = 9.46895e-06, Final residual = 7.35582e-07, No Iterations 9
time step continuity errors : sum local = 3.52032e-11, global = 4.52101e-20, cumulative = -5.98702e-18
DICPCG:  Solving for p, Initial residual = 9.06906e-06, Final residual = 8.92729e-07, No Iterations 8
time step continuity errors : sum local = 4.05807e-11, global = -8.82169e-20, cumulative = -6.07523e-18
ExecutionTime = 3.83 s  ClockTime = 3 s

Time = 0.395

Courant Number mean: 0.100078 max: 0.150645
smoothSolver:  Solving for Ux, Initial residual = 7.18708e-08, Final residual = 7.18708e-08, No Iterations 0
smoothSolver:  Solving for Uy, Initial residual = 8.52383e-05, Final residual = 9.05279e-07, No Iterations 13
DICPCG:  Solving for p, Initial residual = 1.06858e-05, Final residual = 8.87114e-07, No Iterations 9
time step continuity errors : sum local = 4.14101e-11, global = -2.70472e-19, cumulative = -6.34571e-18
DICPCG:  Solving for p, Initial residual = 1.01879e-05, Final residual = 8.17061e-07, No Iterations 9
time step continuity errors : sum local = 3.7458e-11, global = 3.2561e-20, cumulative = -6.31314e-18
ExecutionTime = 3.86 s  ClockTime = 3 s

Time = 0.4

Courant Number mean: 0.100078 max: 0.150645
smoothSolver:  Solving for Ux, Initial residual = 6.69808e-08, Final residual = 6.69808e-08, No Iterations 0
smoothSolver:  Solving for Uy, Initial residual = 8.75063e-05, Final residual = 9.24408e-07, No Iterations 13
DICPCG:  Solving for p, Initial residual = 9.71079e-06, Final residual = 8.36333e-07, No Iterations 11
time step continuity errors : sum local = 3.96493e-11, global = -7.63647e-20, cumulative = -6.38951e-18
DICPCG:  Solving for p, Initial residual = 9.03923e-06, Final residual = 9.37224e-07, No Iterations 10
time step continuity errors : sum local = 4.29343e-11, global = 3.91006e-21, cumulative = -6.3856e-18
ExecutionTime = 3.89 s  ClockTime = 3 s

Time = 0.405

Courant Number mean: 0.100078 max: 0.150645
smoothSolver:  Solving for Ux, Initial residual = 6.27351e-08, Final residual = 6.27351e-08, No Iterations 0
smoothSolver:  Solving for Uy, Initial residual = 5.75107e-05, Final residual = 7.19112e-07, No Iterations 12
DICPCG:  Solving for p, Initial residual = 7.47571e-06, Final residual = 6.57326e-07, No Iterations 9
time step continuity errors : sum local = 3.23851e-11, global = -3.6127e-20, cumulative = -6.42173e-18
DICPCG:  Solving for p, Initial residual = 6.98323e-06, Final residual = 9.94402e-07, No Iterations 8
time step continuity errors : sum local = 4.57758e-11, global = 1.24129e-19, cumulative = -6.2976e-18
ExecutionTime = 3.9 s  ClockTime = 3 s

Time = 0.41

Courant Number mean: 0.100078 max: 0.150645
smoothSolver:  Solving for Ux, Initial residual = 5.87518e-08, Final residual = 5.87518e-08, No Iterations 0
smoothSolver:  Solving for Uy, Initial residual = 6.21649e-05, Final residual = 9.2316e-07, No Iterations 12
DICPCG:  Solving for p, Initial residual = 7.43485e-06, Final residual = 8.7459e-07, No Iterations 8
time step continuity errors : sum local = 4.19912e-11, global = -1.51484e-19, cumulative = -6.44908e-18
DICPCG:  Solving for p, Initial residual = 7.10483e-06, Final residual = 9.24276e-07, No Iterations 7
time step continuity errors : sum local = 4.28396e-11, global = 7.91561e-21, cumulative = -6.44116e-18
ExecutionTime = 3.91 s  ClockTime = 4 s

Time = 0.415

Courant Number mean: 0.100078 max: 0.150645
smoothSolver:  Solving for Ux, Initial residual = 5.50058e-08, Final residual = 5.50058e-08, No Iterations 0
smoothSolver:  Solving for Uy, Initial residual = 8.15077e-05, Final residual = 9.73925e-07, No Iterations 13
DICPCG:  Solving for p, Initial residual = 9.2677e-06, Final residual = 9.72568e-07, No Iterations 10
time step continuity errors : sum local = 4.60466e-11, global = -4.89291e-20, cumulative = -6.49009e-18
DICPCG:  Solving for p, Initial residual = 8.5307e-06, Final residual = 9.72193e-07, No Iterations 10
time step continuity errors : sum local = 4.51636e-11, global = 1.05055e-19, cumulative = -6.38504e-18
ExecutionTime = 3.93 s  ClockTime = 4 s

Time = 0.42

Courant Number mean: 0.100078 max: 0.150645
smoothSolver:  Solving for Ux, Initial residual = 5.1631e-08, Final residual = 5.1631e-08, No Iterations 0
smoothSolver:  Solving for Uy, Initial residual = 5.78085e-05, Final residual = 7.57739e-07, No Iterations 12
DICPCG:  Solving for p, Initial residual = 7.33611e-06, Final residual = 8.95073e-07, No Iterations 9
time step continuity errors : sum local = 4.32917e-11, global = 2.73298e-20, cumulative = -6.35771e-18
DICPCG:  Solving for p, Initial residual = 6.5602e-06, Final residual = 9.95371e-07, No Iterations 7
time step continuity errors : sum local = 4.64401e-11, global = -1.04444e-19, cumulative = -6.46215e-18
ExecutionTime = 3.94 s  ClockTime = 4 s

Time = 0.425

Courant Number mean: 0.100078 max: 0.150645
smoothSolver:  Solving for Ux, Initial residual = 4.82936e-08, Final residual = 4.82936e-08, No Iterations 0
smoothSolver:  Solving for Uy, Initial residual = 5.92957e-05, Final residual = 9.00952e-07, No Iterations 12
DICPCG:  Solving for p, Initial residual = 7.63315e-06, Final residual = 9.8183e-07, No Iterations 8
time step continuity errors : sum local = 4.6829e-11, global = 4.08697e-20, cumulative = -6.42128e-18
DICPCG:  Solving for p, Initial residual = 7.31809e-06, Final residual = 9.31002e-07, No Iterations 8
time step continuity errors : sum local = 4.41753e-11, global = -1.76123e-19, cumulative = -6.59741e-18
ExecutionTime = 3.95 s  ClockTime = 4 s

Time = 0.43

Courant Number mean: 0.100078 max: 0.150645
smoothSolver:  Solving for Ux, Initial residual = 4.52363e-08, Final residual = 4.52363e-08, No Iterations 0
smoothSolver:  Solving for Uy, Initial residual = 7.09328e-05, Final residual = 7.72328e-07, No Iterations 13
DICPCG:  Solving for p, Initial residual = 8.44004e-06, Final residual = 9.42876e-07, No Iterations 10
time step continuity errors : sum local = 4.53629e-11, global = 3.58305e-21, cumulative = -6.59382e-18
DICPCG:  Solving for p, Initial residual = 7.41716e-06, Final residual = 8.1248e-07, No Iterations 10
time step continuity errors : sum local = 3.92629e-11, global = 8.35079e-21, cumulative = -6.58547e-18
ExecutionTime = 3.96 s  ClockTime = 4 s

Time = 0.435

Courant Number mean: 0.100078 max: 0.150645
smoothSolver:  Solving for Ux, Initial residual = 4.21605e-08, Final residual = 4.21605e-08, No Iterations 0
smoothSolver:  Solving for Uy, Initial residual = 5.24245e-05, Final residual = 7.41163e-07, No Iterations 12
DICPCG:  Solving for p, Initial residual = 8.13358e-06, Final residual = 9.2918e-07, No Iterations 8
time step continuity errors : sum local = 4.53344e-11, global = -4.16325e-20, cumulative = -6.6271e-18
DICPCG:  Solving for p, Initial residual = 7.17429e-06, Final residual = 8.32361e-07, No Iterations 8
time step continuity errors : sum local = 4.03672e-11, global = 6.80986e-20, cumulative = -6.55901e-18
ExecutionTime = 3.97 s  ClockTime = 4 s

Time = 0.44

Courant Number mean: 0.100078 max: 0.150645
smoothSolver:  Solving for Ux, Initial residual = 3.96448e-08, Final residual = 3.96448e-08, No Iterations 0
smoothSolver:  Solving for Uy, Initial residual = 5.77748e-05, Final residual = 8.92738e-07, No Iterations 12
DICPCG:  Solving for p, Initial residual = 8.30973e-06, Final residual = 7.44606e-07, No Iterations 9
time step continuity errors : sum local = 3.80987e-11, global = -8.42531e-20, cumulative = -6.64326e-18
DICPCG:  Solving for p, Initial residual = 7.53187e-06, Final residual = 9.43209e-07, No Iterations 8
time step continuity errors : sum local = 4.56357e-11, global = -9.73067e-20, cumulative = -6.74057e-18
ExecutionTime = 3.98 s  ClockTime = 4 s

Time = 0.445

Courant Number mean: 0.100078 max: 0.150645
smoothSolver:  Solving for Ux, Initial residual = 3.71671e-08, Final residual = 3.71671e-08, No Iterations 0
smoothSolver:  Solving for Uy, Initial residual = 5.05254e-05, Final residual = 7.92791e-07, No Iterations 12
DICPCG:  Solving for p, Initial residual = 7.65352e-06, Final residual = 7.40922e-07, No Iterations 9
time step continuity errors : sum local = 3.67817e-11, global = 6.13714e-20, cumulative = -6.67919e-18
DICPCG:  Solving for p, Initial residual = 6.96492e-06, Final residual = 9.01844e-07, No Iterations 8
time step continuity errors : sum local = 4.33698e-11, global = 1.53177e-19, cumulative = -6.52602e-18
ExecutionTime = 3.99 s  ClockTime = 4 s

Time = 0.45

Courant Number mean: 0.100078 max: 0.150645
smoothSolver:  Solving for Ux, Initial residual = 3.48146e-08, Final residual = 3.48146e-08, No Iterations 0
smoothSolver:  Solving for Uy, Initial residual = 5.50323e-05, Final residual = 7.88781e-07, No Iterations 12
DICPCG:  Solving for p, Initial residual = 7.46142e-06, Final residual = 8.37267e-07, No Iterations 9
time step continuity errors : sum local = 4.25882e-11, global = -1.70206e-20, cumulative = -6.54304e-18
DICPCG:  Solving for p, Initial residual = 6.76942e-06, Final residual = 8.31456e-07, No Iterations 8
time step continuity errors : sum local = 4.13429e-11, global = -5.08161e-20, cumulative = -6.59385e-18
ExecutionTime = 4 s  ClockTime = 4 s

Time = 0.455

Courant Number mean: 0.100078 max: 0.150645
smoothSolver:  Solving for Ux, Initial residual = 3.29224e-08, Final residual = 3.29224e-08, No Iterations 0
smoothSolver:  Solving for Uy, Initial residual = 5.33443e-05, Final residual = 8.84568e-07, No Iterations 12
DICPCG:  Solving for p, Initial residual = 7.39889e-06, Final residual = 7.09436e-07, No Iterations 9
time step continuity errors : sum local = 3.50351e-11, global = 2.66414e-20, cumulative = -6.56721e-18
DICPCG:  Solving for p, Initial residual = 6.6874e-06, Final residual = 9.50668e-07, No Iterations 8
time step continuity errors : sum local = 4.53831e-11, global = -5.47987e-20, cumulative = -6.62201e-18
ExecutionTime = 4.01 s  ClockTime = 4 s

Time = 0.46

Courant Number mean: 0.100078 max: 0.150645
smoothSolver:  Solving for Ux, Initial residual = 3.08906e-08, Final residual = 3.08906e-08, No Iterations 0
smoothSolver:  Solving for Uy, Initial residual = 5.72673e-05, Final residual = 8.16862e-07, No Iterations 12
DICPCG:  Solving for p, Initial residual = 7.54314e-06, Final residual = 8.88357e-07, No Iterations 9
time step continuity errors : sum local = 4.51599e-11, global = -5.02818e-20, cumulative = -6.67229e-18
DICPCG:  Solving for p, Initial residual = 6.77878e-06, Final residual = 9.91963e-07, No Iterations 7
time step continuity errors : sum local = 4.81234e-11, global = -2.80796e-20, cumulative = -6.70037e-18
ExecutionTime = 4.03 s  ClockTime = 4 s

Time = 0.465

Courant Number mean: 0.100078 max: 0.150645
smoothSolver:  Solving for Ux, Initial residual = 2.93744e-08, Final residual = 2.93744e-08, No Iterations 0
smoothSolver:  Solving for Uy, Initial residual = 6.41746e-05, Final residual = 8.54869e-07, No Iterations 13
DICPCG:  Solving for p, Initial residual = 8.34064e-06, Final residual = 6.64464e-07, No Iterations 9
time step continuity errors : sum local = 3.26738e-11, global = -1.53811e-19, cumulative = -6.85418e-18
DICPCG:  Solving for p, Initial residual = 7.75264e-06, Final residual = 6.0952e-07, No Iterations 9
time step continuity errors : sum local = 3.08233e-11, global = -4.45436e-20, cumulative = -6.89873e-18
ExecutionTime = 4.04 s  ClockTime = 4 s

Time = 0.47

Courant Number mean: 0.100078 max: 0.150645
smoothSolver:  Solving for Ux, Initial residual = 2.75641e-08, Final residual = 2.75641e-08, No Iterations 0
smoothSolver:  Solving for Uy, Initial residual = 4.08812e-05, Final residual = 7.87864e-07, No Iterations 11
DICPCG:  Solving for p, Initial residual = 5.01544e-06, Final residual = 9.62275e-07, No Iterations 6
time step continuity errors : sum local = 4.81585e-11, global = 6.50162e-20, cumulative = -6.83371e-18
DICPCG:  Solving for p, Initial residual = 4.58524e-06, Final residual = 6.92445e-07, No Iterations 6
time step continuity errors : sum local = 3.5624e-11, global = 1.56977e-19, cumulative = -6.67673e-18
ExecutionTime = 4.05 s  ClockTime = 4 s

Time = 0.475

Courant Number mean: 0.100078 max: 0.150645
smoothSolver:  Solving for Ux, Initial residual = 2.63349e-08, Final residual = 2.63349e-08, No Iterations 0
smoothSolver:  Solving for Uy, Initial residual = 6.23805e-05, Final residual = 7.70836e-07, No Iterations 13
DICPCG:  Solving for p, Initial residual = 9.36169e-06, Final residual = 7.07154e-07, No Iterations 9
time step continuity errors : sum local = 3.44029e-11, global = 3.07237e-20, cumulative = -6.64601e-18
DICPCG:  Solving for p, Initial residual = 8.40753e-06, Final residual = 5.97244e-07, No Iterations 9
time step continuity errors : sum local = 3.03902e-11, global = -2.09019e-19, cumulative = -6.85503e-18
ExecutionTime = 4.06 s  ClockTime = 4 s

Time = 0.48

Courant Number mean: 0.100078 max: 0.150645
smoothSolver:  Solving for Ux, Initial residual = 2.44986e-08, Final residual = 2.44986e-08, No Iterations 0
smoothSolver:  Solving for Uy, Initial residual = 3.46406e-05, Final residual = 9.00585e-07, No Iterations 10
DICPCG:  Solving for p, Initial residual = 5.13414e-06, Final residual = 8.72007e-07, No Iterations 7
time step continuity errors : sum local = 4.33396e-11, global = -8.37258e-20, cumulative = -6.93876e-18
DICPCG:  Solving for p, Initial residual = 4.69533e-06, Final residual = 7.06354e-07, No Iterations 6
time step continuity errors : sum local = 3.5889e-11, global = 2.13281e-20, cumulative = -6.91743e-18
ExecutionTime = 4.07 s  ClockTime = 4 s

Time = 0.485

Courant Number mean: 0.100078 max: 0.150645
smoothSolver:  Solving for Ux, Initial residual = 2.29482e-08, Final residual = 2.29482e-08, No Iterations 0
smoothSolver:  Solving for Uy, Initial residual = 6.16328e-05, Final residual = 8.42312e-07, No Iterations 13
DICPCG:  Solving for p, Initial residual = 8.65391e-06, Final residual = 5.76644e-07, No Iterations 9
time step continuity errors : sum local = 2.91444e-11, global = -2.2137e-19, cumulative = -7.1388e-18
DICPCG:  Solving for p, Initial residual = 7.86459e-06, Final residual = 4.76099e-07, No Iterations 9
time step continuity errors : sum local = 2.51325e-11, global = 1.60678e-19, cumulative = -6.97812e-18
ExecutionTime = 4.08 s  ClockTime = 4 s

Time = 0.49

Courant Number mean: 0.100078 max: 0.150645
smoothSolver:  Solving for Ux, Initial residual = 2.14796e-08, Final residual = 2.14796e-08, No Iterations 0
smoothSolver:  Solving for Uy, Initial residual = 3.43592e-05, Final residual = 9.72149e-07, No Iterations 10
DICPCG:  Solving for p, Initial residual = 4.23125e-06, Final residual = 7.18023e-07, No Iterations 7
time step continuity errors : sum local = 3.69756e-11, global = -2.04082e-19, cumulative = -7.1822e-18
DICPCG:  Solving for p, Initial residual = 3.89302e-06, Final residual = 9.68843e-07, No Iterations 6
time step continuity errors : sum local = 4.66654e-11, global = -2.86777e-20, cumulative = -7.21088e-18
ExecutionTime = 4.09 s  ClockTime = 4 s

Time = 0.495

Courant Number mean: 0.100078 max: 0.150645
smoothSolver:  Solving for Ux, Initial residual = 2.04624e-08, Final residual = 2.04624e-08, No Iterations 0
smoothSolver:  Solving for Uy, Initial residual = 4.97478e-05, Final residual = 8.41742e-07, No Iterations 12
DICPCG:  Solving for p, Initial residual = 8.72314e-06, Final residual = 5.92627e-07, No Iterations 9
time step continuity errors : sum local = 2.97449e-11, global = -4.00442e-20, cumulative = -7.25092e-18
DICPCG:  Solving for p, Initial residual = 7.58673e-06, Final residual = 9.64189e-07, No Iterations 8
time step continuity errors : sum local = 4.56011e-11, global = 2.05797e-19, cumulative = -7.04513e-18
ExecutionTime = 4.1 s  ClockTime = 4 s

Time = 0.5

Courant Number mean: 0.100078 max: 0.150645
smoothSolver:  Solving for Ux, Initial residual = 1.90621e-08, Final residual = 1.90621e-08, No Iterations 0
smoothSolver:  Solving for Uy, Initial residual = 3.86226e-05, Final residual = 8.07673e-07, No Iterations 11
DICPCG:  Solving for p, Initial residual = 6.55969e-06, Final residual = 9.23061e-07, No Iterations 8
time step continuity errors : sum local = 4.49436e-11, global = 1.23099e-19, cumulative = -6.92203e-18
DICPCG:  Solving for p, Initial residual = 5.53247e-06, Final residual = 8.45852e-07, No Iterations 8
time step continuity errors : sum local = 4.08921e-11, global = 1.88598e-20, cumulative = -6.90317e-18
ExecutionTime = 4.12 s  ClockTime = 4 s

End

