/*---------------------------------------------------------------------------*\
  =========                 |
  \\      /  F ield         | OpenFOAM: The Open Source CFD Toolbox
   \\    /   O peration     | Website:  https://openfoam.org
    \\  /    A nd           | Version:  7
     \\/     M anipulation  |
\*---------------------------------------------------------------------------*/
Build  : 7-7dc73e32f723
Exec   : icoFoam
Date   : Nov 07 2020
Time   : 17:32:05
Host   : "DESKTOP-VSJ4QNK"
PID    : 29699
I/O    : uncollated
Case   : /home/anoldfriend/OpenFOAM/anoldfriend-7/run/trainning/101programming/codeStream_BC/2Delbow_UparabolicInlet
nProcs : 1
sigFpe : Enabling floating point exception trapping (FOAM_SIGFPE).
fileModificationChecking : Monitoring run-time modified files using timeStampMaster (fileModificationSkew 10)
allowSystemOperations : Allowing user-supplied system call operations

// * * * * * * * * * * * * * * * * * * * * * * * * * * * * * * * * * * * * * //
Create time

Create mesh for time = 0

Reading transportProperties

Reading field p

Reading field U

Using #codeStream at line 42 in file "/home/anoldfriend/OpenFOAM/anoldfriend-7/run/trainning/101programming/codeStream_BC/2Delbow_UparabolicInlet/0/U.boundaryField.velocity-inlet-5"
Using #codeStream with "/home/anoldfriend/OpenFOAM/anoldfriend-7/run/trainning/101programming/codeStream_BC/2Delbow_UparabolicInlet/dynamicCode/platforms/linux64GccDPInt32Debug/lib/libcodeStream_e31c9be26fa6d26e844b4436c26f7453204a98fc.so"
Creating new library in "dynamicCode/_e31c9be26fa6d26e844b4436c26f7453204a98fc/platforms/linux64GccDPInt32Debug/lib/libcodeStream_e31c9be26fa6d26e844b4436c26f7453204a98fc.so"
Invoking "wmake -s libso /home/anoldfriend/OpenFOAM/anoldfriend-7/run/trainning/101programming/codeStream_BC/2Delbow_UparabolicInlet/dynamicCode/_e31c9be26fa6d26e844b4436c26f7453204a98fc"
wmake libso /home/anoldfriend/OpenFOAM/anoldfriend-7/run/trainning/101programming/codeStream_BC/2Delbow_UparabolicInlet/dynamicCode/_e31c9be26fa6d26e844b4436c26f7453204a98fc
    wmkdep: codeStreamTemplate.C
    Ctoo: codeStreamTemplate.C
    ld: /home/anoldfriend/OpenFOAM/anoldfriend-7/run/trainning/101programming/codeStream_BC/2Delbow_UparabolicInlet/dynamicCode/_e31c9be26fa6d26e844b4436c26f7453204a98fc/../platforms/linux64GccDPInt32Debug/lib/libcodeStream_e31c9be26fa6d26e844b4436c26f7453204a98fc.so
Reading/calculating face flux field phi


Starting time loop

Time = 0.05

Courant Number mean: 0.00049764395 max: 0.17320508
smoothSolver:  Solving for Ux, Initial residual = 1, Final residual = 2.6426644e-13, No Iterations 2
smoothSolver:  Solving for Uy, Initial residual = 1, Final residual = 1.9476307e-11, No Iterations 2
DICPCG:  Solving for p, Initial residual = 1, Final residual = 0.0087826634, No Iterations 64
DICPCG:  Solving for p, Initial residual = 0.096952637, Final residual = 0.00084114746, No Iterations 42
DICPCG:  Solving for p, Initial residual = 0.0098103536, Final residual = 7.8317852e-05, No Iterations 52
time step continuity errors : sum local = 1.453303e-05, global = -2.4858126e-08, cumulative = -2.4858126e-08
DICPCG:  Solving for p, Initial residual = 0.0014448569, Final residual = 1.3728772e-05, No Iterations 57
DICPCG:  Solving for p, Initial residual = 0.0002867536, Final residual = 2.7103607e-06, No Iterations 53
DICPCG:  Solving for p, Initial residual = 4.0707794e-05, Final residual = 8.659922e-07, No Iterations 12
time step continuity errors : sum local = 1.6045433e-07, global = 1.875348e-08, cumulative = -6.1046453e-09
ExecutionTime = 0.17 s  ClockTime = 5 s

fieldMinMax minmaxdomain write:
    min(p) = 0 in cell 2 at location (49 64 0)
    max(p) = 3444.5256 in cell 49 at location (0.57735027 7 0)
    min(U) = (0.21582886 -0.20363913 0) in cell 0 at location (0.66666667 15.333333 0)
    max(U) = (1.1833087 0.41397659 1.3167034e-14) in cell 98 at location (2.5773503 1 0)

Time = 0.1

Courant Number mean: 0.095752169 max: 0.38053288
smoothSolver:  Solving for Ux, Initial residual = 0.41731601, Final residual = 5.824218e-09, No Iterations 3
smoothSolver:  Solving for Uy, Initial residual = 0.42162068, Final residual = 2.9902385e-09, No Iterations 4
DICPCG:  Solving for p, Initial residual = 0.019030417, Final residual = 0.00015359986, No Iterations 63
DICPCG:  Solving for p, Initial residual = 0.43282079, Final residual = 0.003761473, No Iterations 42
DICPCG:  Solving for p, Initial residual = 0.081576437, Final residual = 0.00055311862, No Iterations 51
time step continuity errors : sum local = 1.2309174e-05, global = 1.0161642e-07, cumulative = 9.5511772e-08
DICPCG:  Solving for p, Initial residual = 0.05240516, Final residual = 0.00049289119, No Iterations 61
DICPCG:  Solving for p, Initial residual = 0.32898567, Final residual = 0.0032624466, No Iterations 42
DICPCG:  Solving for p, Initial residual = 0.044262937, Final residual = 8.0060808e-07, No Iterations 71
time step continuity errors : sum local = 3.442566e-09, global = 1.820378e-11, cumulative = 9.5529976e-08
ExecutionTime = 0.22 s  ClockTime = 5 s

fieldMinMax minmaxdomain write:
    min(p) = -10.941809 in cell 189 at location (56.614857 11.932551 0)
    max(p) = 2.8675434 in cell 35 at location (55.039238 -4.249859 0)
    min(U) = (0.23734925 -0.21869576 0) in cell 0 at location (0.66666667 15.333333 0)
    max(U) = (1.3541567 2.2436101 3.9028743e-18) in cell 6 at location (46.149765 23.460513 0)

Time = 0.15

Courant Number mean: 0.095760672 max: 0.38719826
smoothSolver:  Solving for Ux, Initial residual = 0.020521637, Final residual = 5.2565024e-09, No Iterations 3
smoothSolver:  Solving for Uy, Initial residual = 0.012275203, Final residual = 2.4845887e-09, No Iterations 3
DICPCG:  Solving for p, Initial residual = 0.25081298, Final residual = 0.0024112391, No Iterations 19
DICPCG:  Solving for p, Initial residual = 0.040804913, Final residual = 0.00037442864, No Iterations 55
DICPCG:  Solving for p, Initial residual = 0.0092999085, Final residual = 8.7648654e-05, No Iterations 48
time step continuity errors : sum local = 2.2786997e-07, global = -2.939704e-09, cumulative = 9.2590272e-08
DICPCG:  Solving for p, Initial residual = 0.014779105, Final residual = 0.00013671646, No Iterations 47
DICPCG:  Solving for p, Initial residual = 0.0033771444, Final residual = 3.3282249e-05, No Iterations 20
DICPCG:  Solving for p, Initial residual = 0.00035557183, Final residual = 9.3454734e-07, No Iterations 58
time step continuity errors : sum local = 2.4597267e-09, global = -1.7041981e-10, cumulative = 9.2419852e-08
ExecutionTime = 0.26 s  ClockTime = 5 s

fieldMinMax minmaxdomain write:
    min(p) = -5.7918149 in cell 189 at location (56.614857 11.932551 0)
    max(p) = 3.7885399 in cell 35 at location (55.039238 -4.249859 0)
    min(U) = (0.25276076 -0.22770148 0) in cell 0 at location (0.66666667 15.333333 0)
    max(U) = (1.348459 2.2375939 2.4845809e-18) in cell 6 at location (46.149765 23.460513 0)

Time = 0.2

Courant Number mean: 0.095769651 max: 0.38903904
smoothSolver:  Solving for Ux, Initial residual = 0.015140362, Final residual = 3.9585865e-09, No Iterations 3
smoothSolver:  Solving for Uy, Initial residual = 0.0088834926, Final residual = 1.7639843e-09, No Iterations 3
DICPCG:  Solving for p, Initial residual = 0.13147695, Final residual = 0.0012371249, No Iterations 41
DICPCG:  Solving for p, Initial residual = 0.015908058, Final residual = 0.0001209269, No Iterations 53
DICPCG:  Solving for p, Initial residual = 0.0019838576, Final residual = 1.9492614e-05, No Iterations 21
time step continuity errors : sum local = 3.9853617e-08, global = -3.7635076e-09, cumulative = 8.8656345e-08
DICPCG:  Solving for p, Initial residual = 0.0065336592, Final residual = 6.0037609e-05, No Iterations 44
DICPCG:  Solving for p, Initial residual = 0.0014345151, Final residual = 1.2665583e-05, No Iterations 15
DICPCG:  Solving for p, Initial residual = 0.00016029347, Final residual = 9.6064107e-07, No Iterations 58
time step continuity errors : sum local = 1.9691601e-09, global = -2.8246797e-11, cumulative = 8.8628098e-08
ExecutionTime = 0.3 s  ClockTime = 5 s

fieldMinMax minmaxdomain write:
    min(p) = -4.1153593 in cell 189 at location (56.614857 11.932551 0)
    max(p) = 3.9458264 in cell 35 at location (55.039238 -4.249859 0)
    min(U) = (0.26466746 -0.23326281 0) in cell 0 at location (0.66666667 15.333333 0)
    max(U) = (1.3449733 2.2323854 1.4886641e-18) in cell 6 at location (46.149765 23.460513 0)

Time = 0.25

Courant Number mean: 0.095789827 max: 0.38958993
smoothSolver:  Solving for Ux, Initial residual = 0.012693962, Final residual = 2.9510342e-09, No Iterations 3
smoothSolver:  Solving for Uy, Initial residual = 0.0073297801, Final residual = 1.4108353e-09, No Iterations 3
DICPCG:  Solving for p, Initial residual = 0.10434674, Final residual = 0.0010117001, No Iterations 45
DICPCG:  Solving for p, Initial residual = 0.01090982, Final residual = 0.00010521455, No Iterations 27
DICPCG:  Solving for p, Initial residual = 0.0014394399, Final residual = 1.4243824e-05, No Iterations 51
time step continuity errors : sum local = 2.5301272e-08, global = -1.9415371e-10, cumulative = 8.8433944e-08
DICPCG:  Solving for p, Initial residual = 0.004523082, Final residual = 3.7881229e-05, No Iterations 50
DICPCG:  Solving for p, Initial residual = 0.0010294326, Final residual = 9.4558957e-06, No Iterations 19
DICPCG:  Solving for p, Initial residual = 0.00011985677, Final residual = 8.2321996e-07, No Iterations 49
time step continuity errors : sum local = 1.460715e-09, global = -7.6334023e-11, cumulative = 8.835761e-08
ExecutionTime = 0.34 s  ClockTime = 5 s

fieldMinMax minmaxdomain write:
    min(p) = -3.1530175 in cell 189 at location (56.614857 11.932551 0)
    max(p) = 4.4806223 in cell 70 at location (53.854156 -3.9930806 0)
    min(U) = (0.27426432 -0.23655768 0) in cell 0 at location (0.66666667 15.333333 0)
    max(U) = (1.3431828 2.227459 9.0775916e-19) in cell 6 at location (46.149765 23.460513 0)

Time = 0.3

Courant Number mean: 0.095815097 max: 0.38942678
smoothSolver:  Solving for Ux, Initial residual = 0.010961625, Final residual = 2.1153758e-09, No Iterations 3
smoothSolver:  Solving for Uy, Initial residual = 0.0062610447, Final residual = 1.171772e-09, No Iterations 3
DICPCG:  Solving for p, Initial residual = 0.087448524, Final residual = 0.00086641953, No Iterations 7
DICPCG:  Solving for p, Initial residual = 0.0087937893, Final residual = 7.7804282e-05, No Iterations 53
DICPCG:  Solving for p, Initial residual = 0.0028735526, Final residual = 2.784798e-05, No Iterations 16
time step continuity errors : sum local = 4.4166592e-08, global = 9.843674e-09, cumulative = 9.8201284e-08
DICPCG:  Solving for p, Initial residual = 0.0036913104, Final residual = 3.0531444e-05, No Iterations 57
DICPCG:  Solving for p, Initial residual = 0.00085556036, Final residual = 6.8857607e-06, No Iterations 9
DICPCG:  Solving for p, Initial residual = 9.7514614e-05, Final residual = 8.9975211e-07, No Iterations 56
time step continuity errors : sum local = 1.4245198e-09, global = -2.5872509e-11, cumulative = 9.8175412e-08
ExecutionTime = 0.37 s  ClockTime = 5 s

fieldMinMax minmaxdomain write:
    min(p) = -2.6429458 in cell 189 at location (56.614857 11.932551 0)
    max(p) = 4.6353725 in cell 70 at location (53.854156 -3.9930806 0)
    min(U) = (0.28224791 -0.23827762 0) in cell 0 at location (0.66666667 15.333333 0)
    max(U) = (1.3427201 2.2228522 5.5641156e-19) in cell 6 at location (46.149765 23.460513 0)

Time = 0.35

Courant Number mean: 0.095839343 max: 0.38893774
smoothSolver:  Solving for Ux, Initial residual = 0.0096105, Final residual = 1.4964193e-09, No Iterations 3
smoothSolver:  Solving for Uy, Initial residual = 0.0054275317, Final residual = 1.0027553e-09, No Iterations 3
DICPCG:  Solving for p, Initial residual = 0.0745997, Final residual = 0.00070420679, No Iterations 7
DICPCG:  Solving for p, Initial residual = 0.0073295258, Final residual = 7.2644985e-05, No Iterations 56
DICPCG:  Solving for p, Initial residual = 0.0020299049, Final residual = 2.021686e-05, No Iterations 42
time step continuity errors : sum local = 2.9196415e-08, global = 4.1821431e-09, cumulative = 1.0235755e-07
DICPCG:  Solving for p, Initial residual = 0.0030794048, Final residual = 2.8490576e-05, No Iterations 50
DICPCG:  Solving for p, Initial residual = 0.00066886623, Final residual = 6.5002727e-06, No Iterations 21
DICPCG:  Solving for p, Initial residual = 8.1650051e-05, Final residual = 8.5806049e-07, No Iterations 53
time step continuity errors : sum local = 1.2379844e-09, global = -2.7845445e-11, cumulative = 1.0232971e-07
ExecutionTime = 0.41 s  ClockTime = 5 s

fieldMinMax minmaxdomain write:
    min(p) = -2.3899604 in cell 189 at location (56.614857 11.932551 0)
    max(p) = 4.5767627 in cell 70 at location (53.854156 -3.9930806 0)
    min(U) = (0.28905638 -0.23886243 0) in cell 0 at location (0.66666667 15.333333 0)
    max(U) = (1.343238 2.2185033 3.4885725e-19) in cell 6 at location (46.149765 23.460513 0)

Time = 0.4

Courant Number mean: 0.095861713 max: 0.38832853
smoothSolver:  Solving for Ux, Initial residual = 0.0085428072, Final residual = 1.2321061e-09, No Iterations 3
smoothSolver:  Solving for Uy, Initial residual = 0.0047854365, Final residual = 8.4452355e-10, No Iterations 3
DICPCG:  Solving for p, Initial residual = 0.06688282, Final residual = 0.00061948827, No Iterations 7
DICPCG:  Solving for p, Initial residual = 0.0065302583, Final residual = 5.548215e-05, No Iterations 57
DICPCG:  Solving for p, Initial residual = 0.0014835148, Final residual = 1.4474443e-05, No Iterations 26
time step continuity errors : sum local = 1.9193197e-08, global = 2.5670978e-09, cumulative = 1.0489681e-07
DICPCG:  Solving for p, Initial residual = 0.0026967558, Final residual = 2.0916463e-05, No Iterations 55
DICPCG:  Solving for p, Initial residual = 0.00056903585, Final residual = 5.1981856e-06, No Iterations 9
DICPCG:  Solving for p, Initial residual = 6.5319572e-05, Final residual = 9.6710328e-07, No Iterations 47
time step continuity errors : sum local = 1.2822053e-09, global = -2.7305526e-11, cumulative = 1.048695e-07
ExecutionTime = 0.45 s  ClockTime = 5 s

fieldMinMax minmaxdomain write:
    min(p) = -2.2894141 in cell 189 at location (56.614857 11.932551 0)
    max(p) = 4.4115723 in cell 70 at location (53.854156 -3.9930806 0)
    min(U) = (0.29497986 -0.23860666 0) in cell 0 at location (0.66666667 15.333333 0)
    max(U) = (1.3444733 2.2143654 2.3639302e-19) in cell 6 at location (46.149765 23.460513 0)

Time = 0.45

Courant Number mean: 0.095882129 max: 0.38786552
smoothSolver:  Solving for Ux, Initial residual = 0.0076764673, Final residual = 1.0222341e-09, No Iterations 3
smoothSolver:  Solving for Uy, Initial residual = 0.0042621384, Final residual = 7.2171946e-10, No Iterations 3
DICPCG:  Solving for p, Initial residual = 0.060176936, Final residual = 0.0005637392, No Iterations 7
DICPCG:  Solving for p, Initial residual = 0.0058806787, Final residual = 4.8469185e-05, No Iterations 58
DICPCG:  Solving for p, Initial residual = 0.0011538639, Final residual = 1.0422413e-05, No Iterations 22
time step continuity errors : sum local = 1.2799008e-08, global = 1.0713676e-09, cumulative = 1.0594087e-07
DICPCG:  Solving for p, Initial residual = 0.0024626038, Final residual = 2.2350029e-05, No Iterations 55
DICPCG:  Solving for p, Initial residual = 0.00051533692, Final residual = 4.6510014e-06, No Iterations 9
DICPCG:  Solving for p, Initial residual = 5.566443e-05, Final residual = 5.9923109e-07, No Iterations 49
time step continuity errors : sum local = 7.3613571e-10, global = 3.537639e-12, cumulative = 1.0594441e-07
ExecutionTime = 0.49 s  ClockTime = 6 s

fieldMinMax minmaxdomain write:
    min(p) = -2.297253 in cell 189 at location (56.614857 11.932551 0)
    max(p) = 4.170515 in cell 70 at location (53.854156 -3.9930806 0)
    min(U) = (0.30021635 -0.23771483 0) in cell 0 at location (0.66666667 15.333333 0)
    max(U) = (1.3462123 2.2103987 1.7960293e-19) in cell 6 at location (46.149765 23.460513 0)

Time = 0.5

Courant Number mean: 0.095901156 max: 0.3874218
smoothSolver:  Solving for Ux, Initial residual = 0.0069421968, Final residual = 1.2040206e-09, No Iterations 3
smoothSolver:  Solving for Uy, Initial residual = 0.0038255401, Final residual = 5.7879915e-10, No Iterations 3
DICPCG:  Solving for p, Initial residual = 0.055567588, Final residual = 0.00054112784, No Iterations 7
DICPCG:  Solving for p, Initial residual = 0.0055499089, Final residual = 5.2770052e-05, No Iterations 56
DICPCG:  Solving for p, Initial residual = 0.00098038903, Final residual = 9.3173156e-06, No Iterations 20
time step continuity errors : sum local = 1.0646518e-08, global = -1.0379986e-10, cumulative = 1.0584061e-07
DICPCG:  Solving for p, Initial residual = 0.0023462955, Final residual = 1.9860852e-05, No Iterations 24
DICPCG:  Solving for p, Initial residual = 0.0004757814, Final residual = 4.5133036e-06, No Iterations 22
DICPCG:  Solving for p, Initial residual = 5.7634404e-05, Final residual = 8.9624256e-07, No Iterations 44
time step continuity errors : sum local = 1.0249475e-09, global = -1.6567689e-11, cumulative = 1.0582404e-07
ExecutionTime = 0.52 s  ClockTime = 6 s

fieldMinMax minmaxdomain write:
    min(p) = -2.3712477 in cell 189 at location (56.614857 11.932551 0)
    max(p) = 3.8558955 in cell 70 at location (53.854156 -3.9930806 0)
    min(U) = (0.30489672 -0.23632491 0) in cell 0 at location (0.66666667 15.333333 0)
    max(U) = (1.3482848 2.2065924 1.5938311e-19) in cell 6 at location (46.149765 23.460513 0)

Time = 0.55

Courant Number mean: 0.095918403 max: 0.38705921
smoothSolver:  Solving for Ux, Initial residual = 0.0063148203, Final residual = 1.1587431e-09, No Iterations 3
smoothSolver:  Solving for Uy, Initial residual = 0.0034587419, Final residual = 4.8597908e-10, No Iterations 3
DICPCG:  Solving for p, Initial residual = 0.051697856, Final residual = 0.00044526135, No Iterations 14
DICPCG:  Solving for p, Initial residual = 0.0054120741, Final residual = 4.5574971e-05, No Iterations 26
DICPCG:  Solving for p, Initial residual = 0.00072475443, Final residual = 6.5965846e-06, No Iterations 51
time step continuity errors : sum local = 7.0726332e-09, global = 1.4117001e-10, cumulative = 1.0596521e-07
DICPCG:  Solving for p, Initial residual = 0.002156022, Final residual = 1.759082e-05, No Iterations 24
DICPCG:  Solving for p, Initial residual = 0.00043658975, Final residual = 4.2024295e-06, No Iterations 29
DICPCG:  Solving for p, Initial residual = 5.4240761e-05, Final residual = 8.0648744e-07, No Iterations 55
time step continuity errors : sum local = 8.6493369e-10, global = -4.2557548e-12, cumulative = 1.0596095e-07
ExecutionTime = 0.56 s  ClockTime = 6 s

fieldMinMax minmaxdomain write:
    min(p) = -2.4810291 in cell 189 at location (56.614857 11.932551 0)
    max(p) = 3.6907023 in cell 49 at location (0.57735027 7 0)
    min(U) = (0.30910669 -0.23452781 0) in cell 0 at location (0.66666667 15.333333 0)
    max(U) = (1.350548 2.2029233 1.6362262e-19) in cell 6 at location (46.149765 23.460513 0)

Time = 0.6

Courant Number mean: 0.095935657 max: 0.38796544
smoothSolver:  Solving for Ux, Initial residual = 0.0058078975, Final residual = 1.153072e-09, No Iterations 3
smoothSolver:  Solving for Uy, Initial residual = 0.0031512079, Final residual = 4.02419e-10, No Iterations 3
DICPCG:  Solving for p, Initial residual = 0.046900352, Final residual = 0.00042615592, No Iterations 7
DICPCG:  Solving for p, Initial residual = 0.0049777332, Final residual = 4.5622299e-05, No Iterations 57
DICPCG:  Solving for p, Initial residual = 0.00081657625, Final residual = 8.1393586e-06, No Iterations 17
time step continuity errors : sum local = 8.2111755e-09, global = -6.7843136e-10, cumulative = 1.0528252e-07
DICPCG:  Solving for p, Initial residual = 0.0019652919, Final residual = 1.7475579e-05, No Iterations 24
DICPCG:  Solving for p, Initial residual = 0.00038240038, Final residual = 3.1473019e-06, No Iterations 47
DICPCG:  Solving for p, Initial residual = 6.2056176e-05, Final residual = 9.898562e-07, No Iterations 14
time step continuity errors : sum local = 9.9964698e-10, global = 1.5399295e-10, cumulative = 1.0543652e-07
ExecutionTime = 0.6 s  ClockTime = 6 s

fieldMinMax minmaxdomain write:
    min(p) = -2.6027713 in cell 189 at location (56.614857 11.932551 0)
    max(p) = 3.5962067 in cell 49 at location (0.57735027 7 0)
    min(U) = (0.31293879 -0.23242041 0) in cell 0 at location (0.66666667 15.333333 0)
    max(U) = (1.352867 2.1993319 1.8949722e-19) in cell 6 at location (46.149765 23.460513 0)

Time = 0.65

Courant Number mean: 0.095951909 max: 0.38903696
smoothSolver:  Solving for Ux, Initial residual = 0.0053729299, Final residual = 1.1397624e-09, No Iterations 3
smoothSolver:  Solving for Uy, Initial residual = 0.0028947137, Final residual = 3.4009228e-10, No Iterations 3
DICPCG:  Solving for p, Initial residual = 0.043883153, Final residual = 0.0003788856, No Iterations 7
DICPCG:  Solving for p, Initial residual = 0.0046192522, Final residual = 4.5483377e-05, No Iterations 56
DICPCG:  Solving for p, Initial residual = 0.0008120298, Final residual = 7.0715815e-06, No Iterations 18
time step continuity errors : sum local = 6.7402304e-09, global = -1.2550167e-09, cumulative = 1.041815e-07
DICPCG:  Solving for p, Initial residual = 0.0018967824, Final residual = 1.8856929e-05, No Iterations 45
DICPCG:  Solving for p, Initial residual = 0.00036434201, Final residual = 3.5428267e-06, No Iterations 53
DICPCG:  Solving for p, Initial residual = 5.6590001e-05, Final residual = 9.6578256e-07, No Iterations 14
time step continuity errors : sum local = 9.2167873e-10, global = 5.3608518e-11, cumulative = 1.0423511e-07
ExecutionTime = 0.63 s  ClockTime = 6 s

fieldMinMax minmaxdomain write:
    min(p) = -2.732981 in cell 189 at location (56.614857 11.932551 0)
    max(p) = 3.4786666 in cell 49 at location (0.57735027 7 0)
    min(U) = (0.31645416 -0.23006691 0) in cell 0 at location (0.66666667 15.333333 0)
    max(U) = (1.3551364 2.1957737 2.2755049e-19) in cell 6 at location (46.149765 23.460513 0)

Time = 0.7

Courant Number mean: 0.095966395 max: 0.38994453
smoothSolver:  Solving for Ux, Initial residual = 0.0049969772, Final residual = 1.0542264e-09, No Iterations 3
smoothSolver:  Solving for Uy, Initial residual = 0.0026776146, Final residual = 3.1865125e-10, No Iterations 3
DICPCG:  Solving for p, Initial residual = 0.040968723, Final residual = 0.00036053931, No Iterations 7
DICPCG:  Solving for p, Initial residual = 0.0042164427, Final residual = 3.6827382e-05, No Iterations 57
DICPCG:  Solving for p, Initial residual = 0.00080465361, Final residual = 7.2437688e-06, No Iterations 18
time step continuity errors : sum local = 6.5576941e-09, global = -1.5466388e-09, cumulative = 1.0268847e-07
DICPCG:  Solving for p, Initial residual = 0.0017916443, Final residual = 1.350629e-05, No Iterations 57
DICPCG:  Solving for p, Initial residual = 0.00032189829, Final residual = 2.8146434e-06, No Iterations 9
DICPCG:  Solving for p, Initial residual = 3.5596433e-05, Final residual = 9.431039e-07, No Iterations 13
time step continuity errors : sum local = 8.5483722e-10, global = -1.0118793e-10, cumulative = 1.0258728e-07
ExecutionTime = 0.67 s  ClockTime = 6 s

fieldMinMax minmaxdomain write:
    min(p) = -2.8651597 in cell 189 at location (56.614857 11.932551 0)
    max(p) = 3.3548498 in cell 49 at location (0.57735027 7 0)
    min(U) = (0.3196866 -0.22750326 0) in cell 0 at location (0.66666667 15.333333 0)
    max(U) = (1.3573152 2.1922767 2.6705784e-19) in cell 6 at location (46.149765 23.460513 0)

Time = 0.75

Courant Number mean: 0.095979602 max: 0.39071662
smoothSolver:  Solving for Ux, Initial residual = 0.0046650582, Final residual = 8.9140612e-10, No Iterations 3
smoothSolver:  Solving for Uy, Initial residual = 0.0024871422, Final residual = 2.7002422e-10, No Iterations 3
DICPCG:  Solving for p, Initial residual = 0.038512117, Final residual = 0.00033268808, No Iterations 7
DICPCG:  Solving for p, Initial residual = 0.0039817106, Final residual = 3.338377e-05, No Iterations 57
DICPCG:  Solving for p, Initial residual = 0.00079814511, Final residual = 7.7432771e-06, No Iterations 19
time step continuity errors : sum local = 6.6856634e-09, global = -1.7176191e-09, cumulative = 1.0086966e-07
DICPCG:  Solving for p, Initial residual = 0.0016766662, Final residual = 1.5048015e-05, No Iterations 56
DICPCG:  Solving for p, Initial residual = 0.00030042233, Final residual = 2.3091485e-06, No Iterations 10
DICPCG:  Solving for p, Initial residual = 3.4025032e-05, Final residual = 9.8503332e-07, No Iterations 14
time step continuity errors : sum local = 8.5156836e-10, global = -3.1983531e-11, cumulative = 1.0083768e-07
ExecutionTime = 0.7 s  ClockTime = 6 s

fieldMinMax minmaxdomain write:
    min(p) = -2.9913268 in cell 189 at location (56.614857 11.932551 0)
    max(p) = 3.2201694 in cell 49 at location (0.57735027 7 0)
    min(U) = (0.3226625 -0.22475761 0) in cell 0 at location (0.66666667 15.333333 0)
    max(U) = (1.3593638 2.188843 3.0928206e-19) in cell 6 at location (46.149765 23.460513 0)

Time = 0.8

Courant Number mean: 0.095991578 max: 0.39138612
smoothSolver:  Solving for Ux, Initial residual = 0.0043744187, Final residual = 7.7753433e-10, No Iterations 3
smoothSolver:  Solving for Uy, Initial residual = 0.0023223537, Final residual = 2.5312812e-10, No Iterations 3
DICPCG:  Solving for p, Initial residual = 0.03614344, Final residual = 0.00030911561, No Iterations 7
DICPCG:  Solving for p, Initial residual = 0.0037859009, Final residual = 2.9153442e-05, No Iterations 57
DICPCG:  Solving for p, Initial residual = 0.00081756816, Final residual = 7.0580841e-06, No Iterations 47
time step continuity errors : sum local = 5.8241769e-09, global = 3.7529777e-10, cumulative = 1.0121298e-07
DICPCG:  Solving for p, Initial residual = 0.0015799215, Final residual = 1.485323e-05, No Iterations 42
DICPCG:  Solving for p, Initial residual = 0.00028296857, Final residual = 2.801832e-06, No Iterations 26
DICPCG:  Solving for p, Initial residual = 3.6705342e-05, Final residual = 8.0386914e-07, No Iterations 46
time step continuity errors : sum local = 6.6421033e-10, global = 2.8207737e-11, cumulative = 1.0124118e-07
ExecutionTime = 0.74 s  ClockTime = 6 s

fieldMinMax minmaxdomain write:
    min(p) = -3.1133876 in cell 189 at location (56.614857 11.932551 0)
    max(p) = 3.0771657 in cell 49 at location (0.57735027 7 0)
    min(U) = (0.32540428 -0.2218537 0) in cell 0 at location (0.66666667 15.333333 0)
    max(U) = (1.3612537 2.185472 3.5536054e-19) in cell 6 at location (46.149765 23.460513 0)

Time = 0.85

Courant Number mean: 0.096002351 max: 0.39200147
smoothSolver:  Solving for Ux, Initial residual = 0.0041191512, Final residual = 6.8114935e-10, No Iterations 3
smoothSolver:  Solving for Uy, Initial residual = 0.0021755662, Final residual = 2.4992553e-10, No Iterations 3
DICPCG:  Solving for p, Initial residual = 0.034239102, Final residual = 0.00028600868, No Iterations 7
DICPCG:  Solving for p, Initial residual = 0.0036395911, Final residual = 3.2922242e-05, No Iterations 50
DICPCG:  Solving for p, Initial residual = 0.00082485926, Final residual = 7.4787757e-06, No Iterations 26
time step continuity errors : sum local = 5.9109427e-09, global = -9.7401053e-10, cumulative = 1.0026717e-07
DICPCG:  Solving for p, Initial residual = 0.0014846423, Final residual = 1.4068979e-05, No Iterations 41
DICPCG:  Solving for p, Initial residual = 0.00026838075, Final residual = 2.5491027e-06, No Iterations 20
DICPCG:  Solving for p, Initial residual = 2.9642137e-05, Final residual = 7.2992008e-07, No Iterations 12
time step continuity errors : sum local = 5.7768926e-10, global = -6.5574856e-11, cumulative = 1.002016e-07
ExecutionTime = 0.77 s  ClockTime = 6 s

fieldMinMax minmaxdomain write:
    min(p) = -3.2266478 in cell 189 at location (56.614857 11.932551 0)
    max(p) = 2.9308945 in cell 49 at location (0.57735027 7 0)
    min(U) = (0.32793119 -0.21881183 0) in cell 0 at location (0.66666667 15.333333 0)
    max(U) = (1.3629613 2.1821542 4.0260221e-19) in cell 6 at location (46.149765 23.460513 0)

Time = 0.9

Courant Number mean: 0.096014018 max: 0.39259387
smoothSolver:  Solving for Ux, Initial residual = 0.0038901483, Final residual = 6.5175621e-10, No Iterations 3
smoothSolver:  Solving for Uy, Initial residual = 0.0020438402, Final residual = 2.719846e-10, No Iterations 3
DICPCG:  Solving for p, Initial residual = 0.033889755, Final residual = 0.00033307325, No Iterations 7
DICPCG:  Solving for p, Initial residual = 0.0037500649, Final residual = 3.6066681e-05, No Iterations 52
DICPCG:  Solving for p, Initial residual = 0.00086563903, Final residual = 7.2298645e-06, No Iterations 47
time step continuity errors : sum local = 5.4672572e-09, global = -6.7981287e-12, cumulative = 1.001948e-07
DICPCG:  Solving for p, Initial residual = 0.0015344986, Final residual = 1.1986612e-05, No Iterations 54
DICPCG:  Solving for p, Initial residual = 0.0002777031, Final residual = 2.7438262e-06, No Iterations 11
DICPCG:  Solving for p, Initial residual = 3.0558455e-05, Final residual = 9.6559691e-07, No Iterations 13
time step continuity errors : sum local = 7.3115371e-10, global = -1.4123483e-11, cumulative = 1.0018068e-07
ExecutionTime = 0.8 s  ClockTime = 6 s

fieldMinMax minmaxdomain write:
    min(p) = -3.3366184 in cell 189 at location (56.614857 11.932551 0)
    max(p) = 2.7873796 in cell 48 at location (1.1547005 8 0)
    min(U) = (0.33028893 -0.21564457 0) in cell 0 at location (0.66666667 15.333333 0)
    max(U) = (1.3644755 2.1788861 4.5049058e-19) in cell 6 at location (46.149765 23.460513 0)

Time = 0.95

Courant Number mean: 0.0960258 max: 0.39318853
smoothSolver:  Solving for Ux, Initial residual = 0.0036747787, Final residual = 7.3168747e-10, No Iterations 3
smoothSolver:  Solving for Uy, Initial residual = 0.0019272328, Final residual = 2.9157622e-10, No Iterations 3
DICPCG:  Solving for p, Initial residual = 0.032384488, Final residual = 0.00026747858, No Iterations 7
DICPCG:  Solving for p, Initial residual = 0.0035149856, Final residual = 2.8364235e-05, No Iterations 47
DICPCG:  Solving for p, Initial residual = 0.00085131368, Final residual = 8.2301227e-06, No Iterations 47
time step continuity errors : sum local = 5.9579544e-09, global = -3.5285952e-10, cumulative = 9.9827816e-08
DICPCG:  Solving for p, Initial residual = 0.0014629412, Final residual = 1.4585403e-05, No Iterations 45
DICPCG:  Solving for p, Initial residual = 0.00025860887, Final residual = 2.5366542e-06, No Iterations 26
DICPCG:  Solving for p, Initial residual = 3.1509693e-05, Final residual = 9.907983e-07, No Iterations 38
time step continuity errors : sum local = 7.1812354e-10, global = -3.0735874e-11, cumulative = 9.9797081e-08
ExecutionTime = 0.84 s  ClockTime = 6 s

fieldMinMax minmaxdomain write:
    min(p) = -3.4379393 in cell 189 at location (56.614857 11.932551 0)
    max(p) = 2.6570713 in cell 377 at location (4.640181 5.4643757 0)
    min(U) = (0.33259518 -0.2123498 0) in cell 0 at location (0.66666667 15.333333 0)
    max(U) = (1.365787 2.1756587 4.9781942e-19) in cell 6 at location (46.149765 23.460513 0)

Time = 1

Courant Number mean: 0.09603703 max: 0.39379477
smoothSolver:  Solving for Ux, Initial residual = 0.0034907436, Final residual = 7.7656419e-10, No Iterations 3
smoothSolver:  Solving for Uy, Initial residual = 0.0018306747, Final residual = 3.0354295e-10, No Iterations 3
DICPCG:  Solving for p, Initial residual = 0.030826228, Final residual = 0.00029361488, No Iterations 7
DICPCG:  Solving for p, Initial residual = 0.0033897211, Final residual = 3.3031103e-05, No Iterations 54
DICPCG:  Solving for p, Initial residual = 0.00083780598, Final residual = 7.1701648e-06, No Iterations 46
time step continuity errors : sum local = 4.9801182e-09, global = -8.9870099e-11, cumulative = 9.970721e-08
DICPCG:  Solving for p, Initial residual = 0.0013953097, Final residual = 1.2130826e-05, No Iterations 35
DICPCG:  Solving for p, Initial residual = 0.00024919425, Final residual = 2.2421787e-06, No Iterations 24
DICPCG:  Solving for p, Initial residual = 2.6614303e-05, Final residual = 9.6988679e-07, No Iterations 15
time step continuity errors : sum local = 6.7440059e-10, global = -1.2332591e-10, cumulative = 9.9583884e-08
ExecutionTime = 0.88 s  ClockTime = 6 s

fieldMinMax minmaxdomain write:
    min(p) = -3.5316621 in cell 189 at location (56.614857 11.932551 0)
    max(p) = 2.5440927 in cell 377 at location (4.640181 5.4643757 0)
    min(U) = (0.33485395 -0.20894635 0) in cell 0 at location (0.66666667 15.333333 0)
    max(U) = (1.3668888 2.1724624 5.4254325e-19) in cell 6 at location (46.149765 23.460513 0)

Time = 1.05

Courant Number mean: 0.096048073 max: 0.39442278
smoothSolver:  Solving for Ux, Initial residual = 0.003328108, Final residual = 8.0331394e-10, No Iterations 3
smoothSolver:  Solving for Uy, Initial residual = 0.0017494205, Final residual = 3.1212845e-10, No Iterations 3
DICPCG:  Solving for p, Initial residual = 0.029886442, Final residual = 0.00028193078, No Iterations 16
DICPCG:  Solving for p, Initial residual = 0.0033572618, Final residual = 2.8933457e-05, No Iterations 46
DICPCG:  Solving for p, Initial residual = 0.00082442955, Final residual = 5.3051352e-06, No Iterations 35
time step continuity errors : sum local = 3.5470595e-09, global = 5.9470138e-11, cumulative = 9.9643355e-08
DICPCG:  Solving for p, Initial residual = 0.0013904861, Final residual = 1.0889576e-05, No Iterations 49
DICPCG:  Solving for p, Initial residual = 0.00024935436, Final residual = 2.0418778e-06, No Iterations 23
DICPCG:  Solving for p, Initial residual = 2.7771254e-05, Final residual = 8.9672791e-07, No Iterations 7
time step continuity errors : sum local = 6.0020213e-10, global = -3.8332559e-11, cumulative = 9.9605022e-08
ExecutionTime = 0.92 s  ClockTime = 6 s

fieldMinMax minmaxdomain write:
    min(p) = -3.6180655 in cell 189 at location (56.614857 11.932551 0)
    max(p) = 2.4304233 in cell 377 at location (4.640181 5.4643757 0)
    min(U) = (0.33706893 -0.20545194 0) in cell 0 at location (0.66666667 15.333333 0)
    max(U) = (1.3677752 2.1692823 5.8608714e-19) in cell 6 at location (46.149765 23.460513 0)

Time = 1.1

Courant Number mean: 0.096058902 max: 0.39509147
smoothSolver:  Solving for Ux, Initial residual = 0.0031740221, Final residual = 8.1273667e-10, No Iterations 3
smoothSolver:  Solving for Uy, Initial residual = 0.0016802966, Final residual = 3.1644186e-10, No Iterations 3
DICPCG:  Solving for p, Initial residual = 0.029443329, Final residual = 0.0002889521, No Iterations 17
DICPCG:  Solving for p, Initial residual = 0.0034605572, Final residual = 3.3093209e-05, No Iterations 48
DICPCG:  Solving for p, Initial residual = 0.00082370887, Final residual = 6.2131578e-06, No Iterations 42
time step continuity errors : sum local = 4.0058046e-09, global = -1.4699346e-10, cumulative = 9.9458029e-08
DICPCG:  Solving for p, Initial residual = 0.001386165, Final residual = 1.3041853e-05, No Iterations 49
DICPCG:  Solving for p, Initial residual = 0.00025255889, Final residual = 2.2446888e-06, No Iterations 26
DICPCG:  Solving for p, Initial residual = 2.9957253e-05, Final residual = 9.750015e-07, No Iterations 40
time step continuity errors : sum local = 6.2927023e-10, global = -1.9277105e-11, cumulative = 9.9438752e-08
ExecutionTime = 0.96 s  ClockTime = 6 s

fieldMinMax minmaxdomain write:
    min(p) = -3.6948539 in cell 189 at location (56.614857 11.932551 0)
    max(p) = 2.3194145 in cell 434 at location (4.640181 10.654973 0)
    min(U) = (0.33924307 -0.20188289 0) in cell 0 at location (0.66666667 15.333333 0)
    max(U) = (1.3684437 2.1661027 6.2808655e-19) in cell 6 at location (46.149765 23.460513 0)

Time = 1.15

Courant Number mean: 0.096072618 max: 0.39582396
smoothSolver:  Solving for Ux, Initial residual = 0.0030246769, Final residual = 7.9697705e-10, No Iterations 3
smoothSolver:  Solving for Uy, Initial residual = 0.001617877, Final residual = 3.2138546e-10, No Iterations 3
DICPCG:  Solving for p, Initial residual = 0.029378451, Final residual = 0.00024657173, No Iterations 17
DICPCG:  Solving for p, Initial residual = 0.0032431025, Final residual = 3.1559461e-05, No Iterations 53
DICPCG:  Solving for p, Initial residual = 0.00076565515, Final residual = 6.4759366e-06, No Iterations 50
time step continuity errors : sum local = 4.0067672e-09, global = -2.3330696e-10, cumulative = 9.9205445e-08
DICPCG:  Solving for p, Initial residual = 0.0013435792, Final residual = 1.1032964e-05, No Iterations 44
DICPCG:  Solving for p, Initial residual = 0.00023257909, Final residual = 2.1920994e-06, No Iterations 19
DICPCG:  Solving for p, Initial residual = 2.9005551e-05, Final residual = 8.5552102e-07, No Iterations 13
time step continuity errors : sum local = 5.2984921e-10, global = 4.2553593e-11, cumulative = 9.9247998e-08
ExecutionTime = 1 s  ClockTime = 6 s

fieldMinMax minmaxdomain write:
    min(p) = -3.7896383 in cell 189 at location (56.614857 11.932551 0)
    max(p) = 2.2352697 in cell 434 at location (4.640181 10.654973 0)
    min(U) = (0.34137895 -0.19825448 0) in cell 0 at location (0.66666667 15.333333 0)
    max(U) = (1.3689216 2.1629539 6.6521704e-19) in cell 6 at location (46.149765 23.460513 0)

Time = 1.2

Courant Number mean: 0.096088288 max: 0.39658117
smoothSolver:  Solving for Ux, Initial residual = 0.0028830974, Final residual = 7.6392971e-10, No Iterations 3
smoothSolver:  Solving for Uy, Initial residual = 0.0015496891, Final residual = 3.191783e-10, No Iterations 3
DICPCG:  Solving for p, Initial residual = 0.028583604, Final residual = 0.00024107042, No Iterations 8
DICPCG:  Solving for p, Initial residual = 0.0030125485, Final residual = 2.6544756e-05, No Iterations 55
DICPCG:  Solving for p, Initial residual = 0.00081518629, Final residual = 7.9038772e-06, No Iterations 37
time step continuity errors : sum local = 4.7161041e-09, global = -1.2112719e-10, cumulative = 9.9126871e-08
DICPCG:  Solving for p, Initial residual = 0.0012881248, Final residual = 1.2710812e-05, No Iterations 44
DICPCG:  Solving for p, Initial residual = 0.00022210344, Final residual = 2.1095079e-06, No Iterations 13
DICPCG:  Solving for p, Initial residual = 2.15776e-05, Final residual = 9.5823384e-07, No Iterations 15
time step continuity errors : sum local = 5.7235247e-10, global = -2.8897512e-11, cumulative = 9.9097973e-08
ExecutionTime = 1.03 s  ClockTime = 6 s

fieldMinMax minmaxdomain write:
    min(p) = -3.8664848 in cell 189 at location (56.614857 11.932551 0)
    max(p) = 2.1401571 in cell 434 at location (4.640181 10.654973 0)
    min(U) = (0.34347875 -0.19458089 0) in cell 0 at location (0.66666667 15.333333 0)
    max(U) = (1.3691987 2.1598027 7.0335076e-19) in cell 6 at location (46.149765 23.460513 0)

Time = 1.25

Courant Number mean: 0.096105548 max: 0.39740639
smoothSolver:  Solving for Ux, Initial residual = 0.0027598161, Final residual = 7.2131068e-10, No Iterations 3
smoothSolver:  Solving for Uy, Initial residual = 0.0014909777, Final residual = 3.1067651e-10, No Iterations 3
DICPCG:  Solving for p, Initial residual = 0.027248661, Final residual = 0.00026689114, No Iterations 19
DICPCG:  Solving for p, Initial residual = 0.0030016153, Final residual = 2.5395224e-05, No Iterations 53
DICPCG:  Solving for p, Initial residual = 0.00075298169, Final residual = 7.1680892e-06, No Iterations 40
time step continuity errors : sum local = 4.1279995e-09, global = -4.6629525e-10, cumulative = 9.8631678e-08
DICPCG:  Solving for p, Initial residual = 0.0012418118, Final residual = 1.2056387e-05, No Iterations 50
DICPCG:  Solving for p, Initial residual = 0.00021914488, Final residual = 2.0391715e-06, No Iterations 28
DICPCG:  Solving for p, Initial residual = 2.7212425e-05, Final residual = 9.1552767e-07, No Iterations 38
time step continuity errors : sum local = 5.2775527e-10, global = -4.3254346e-11, cumulative = 9.8588424e-08
ExecutionTime = 1.07 s  ClockTime = 6 s

fieldMinMax minmaxdomain write:
    min(p) = -3.9309363 in cell 189 at location (56.614857 11.932551 0)
    max(p) = 2.0452892 in cell 434 at location (4.640181 10.654973 0)
    min(U) = (0.34554333 -0.19087427 0) in cell 0 at location (0.66666667 15.333333 0)
    max(U) = (1.3692801 2.1566406 7.377707e-19) in cell 6 at location (46.149765 23.460513 0)

Time = 1.3

Courant Number mean: 0.096122909 max: 0.39963611
smoothSolver:  Solving for Ux, Initial residual = 0.0026538742, Final residual = 6.7939922e-10, No Iterations 3
smoothSolver:  Solving for Uy, Initial residual = 0.0014418481, Final residual = 3.0319339e-10, No Iterations 3
DICPCG:  Solving for p, Initial residual = 0.026964157, Final residual = 0.00026716142, No Iterations 12
DICPCG:  Solving for p, Initial residual = 0.0029450054, Final residual = 2.8265804e-05, No Iterations 55
DICPCG:  Solving for p, Initial residual = 0.00073721628, Final residual = 6.2363278e-06, No Iterations 40
time step continuity errors : sum local = 3.4671248e-09, global = -2.8816337e-10, cumulative = 9.830026e-08
DICPCG:  Solving for p, Initial residual = 0.0012226668, Final residual = 9.7780447e-06, No Iterations 49
DICPCG:  Solving for p, Initial residual = 0.00021760221, Final residual = 2.1254161e-06, No Iterations 25
DICPCG:  Solving for p, Initial residual = 2.3808411e-05, Final residual = 9.5361889e-07, No Iterations 5
time step continuity errors : sum local = 5.3068505e-10, global = -5.0477118e-12, cumulative = 9.8295213e-08
ExecutionTime = 1.11 s  ClockTime = 6 s

fieldMinMax minmaxdomain write:
    min(p) = -3.996343 in cell 189 at location (56.614857 11.932551 0)
    max(p) = 1.957678 in cell 434 at location (4.640181 10.654973 0)
    min(U) = (0.34757374 -0.18714598 0) in cell 0 at location (0.66666667 15.333333 0)
    max(U) = (1.3691847 2.1534808 7.6948906e-19) in cell 6 at location (46.149765 23.460513 0)

Time = 1.35

Courant Number mean: 0.096139894 max: 0.40347722
smoothSolver:  Solving for Ux, Initial residual = 0.0025666274, Final residual = 6.49964e-10, No Iterations 3
smoothSolver:  Solving for Uy, Initial residual = 0.0013965024, Final residual = 2.9510456e-10, No Iterations 3
DICPCG:  Solving for p, Initial residual = 0.025936614, Final residual = 0.00023088562, No Iterations 20
DICPCG:  Solving for p, Initial residual = 0.0028642868, Final residual = 2.8215448e-05, No Iterations 55
DICPCG:  Solving for p, Initial residual = 0.00071349434, Final residual = 6.1838271e-06, No Iterations 14
time step continuity errors : sum local = 3.3257183e-09, global = -1.0087182e-09, cumulative = 9.7286495e-08
DICPCG:  Solving for p, Initial residual = 0.001183011, Final residual = 9.4252321e-06, No Iterations 58
DICPCG:  Solving for p, Initial residual = 0.00022613566, Final residual = 2.1491799e-06, No Iterations 12
DICPCG:  Solving for p, Initial residual = 2.0467589e-05, Final residual = 9.3024987e-07, No Iterations 14
time step continuity errors : sum local = 5.0081634e-10, global = 7.2791061e-11, cumulative = 9.7359286e-08
ExecutionTime = 1.14 s  ClockTime = 6 s

fieldMinMax minmaxdomain write:
    min(p) = -4.0597548 in cell 189 at location (56.614857 11.932551 0)
    max(p) = 1.8723683 in cell 434 at location (4.640181 10.654973 0)
    min(U) = (0.34957122 -0.18340665 0) in cell 0 at location (0.66666667 15.333333 0)
    max(U) = (1.3689226 2.1503224 8.0034388e-19) in cell 6 at location (46.149765 23.460513 0)

Time = 1.4

Courant Number mean: 0.096156381 max: 0.40723878
smoothSolver:  Solving for Ux, Initial residual = 0.0024845909, Final residual = 6.2407132e-10, No Iterations 3
smoothSolver:  Solving for Uy, Initial residual = 0.0013579066, Final residual = 2.9217849e-10, No Iterations 3
DICPCG:  Solving for p, Initial residual = 0.025706335, Final residual = 0.0002248921, No Iterations 20
DICPCG:  Solving for p, Initial residual = 0.0028767863, Final residual = 2.4745308e-05, No Iterations 55
DICPCG:  Solving for p, Initial residual = 0.00071310404, Final residual = 6.5240368e-06, No Iterations 14
time step continuity errors : sum local = 3.4027378e-09, global = -9.7949609e-10, cumulative = 9.637979e-08
DICPCG:  Solving for p, Initial residual = 0.0011771746, Final residual = 1.0365999e-05, No Iterations 58
DICPCG:  Solving for p, Initial residual = 0.000229339, Final residual = 2.1466408e-06, No Iterations 12
DICPCG:  Solving for p, Initial residual = 2.1272081e-05, Final residual = 9.3880015e-07, No Iterations 14
time step continuity errors : sum local = 4.9012011e-10, global = 6.5168819e-11, cumulative = 9.6444958e-08
ExecutionTime = 1.18 s  ClockTime = 6 s

fieldMinMax minmaxdomain write:
    min(p) = -4.1184224 in cell 189 at location (56.614857 11.932551 0)
    max(p) = 1.7891479 in cell 434 at location (4.640181 10.654973 0)
    min(U) = (0.35153687 -0.17966601 0) in cell 0 at location (0.66666667 15.333333 0)
    max(U) = (1.3685027 2.1471637 8.2916418e-19) in cell 6 at location (46.149765 23.460513 0)

Time = 1.45

Courant Number mean: 0.096172616 max: 0.41091657
smoothSolver:  Solving for Ux, Initial residual = 0.0024017662, Final residual = 5.8509643e-10, No Iterations 3
smoothSolver:  Solving for Uy, Initial residual = 0.0013232026, Final residual = 2.9069767e-10, No Iterations 3
DICPCG:  Solving for p, Initial residual = 0.025323935, Final residual = 0.00021880209, No Iterations 20
DICPCG:  Solving for p, Initial residual = 0.0027696655, Final residual = 2.7025886e-05, No Iterations 55
DICPCG:  Solving for p, Initial residual = 0.0006873033, Final residual = 6.2953436e-06, No Iterations 14
time step continuity errors : sum local = 3.1875266e-09, global = -8.9969692e-10, cumulative = 9.5545261e-08
DICPCG:  Solving for p, Initial residual = 0.0011673127, Final residual = 1.0682378e-05, No Iterations 58
DICPCG:  Solving for p, Initial residual = 0.00022282415, Final residual = 2.1871585e-06, No Iterations 12
DICPCG:  Solving for p, Initial residual = 2.1332894e-05, Final residual = 9.2353416e-07, No Iterations 14
time step continuity errors : sum local = 4.6799471e-10, global = 6.4052453e-11, cumulative = 9.5609314e-08
ExecutionTime = 1.21 s  ClockTime = 6 s

fieldMinMax minmaxdomain write:
    min(p) = -4.1718716 in cell 189 at location (56.614857 11.932551 0)
    max(p) = 1.7105388 in cell 434 at location (4.640181 10.654973 0)
    min(U) = (0.3534717 -0.175933 0) in cell 0 at location (0.66666667 15.333333 0)
    max(U) = (1.367935 2.1440059 8.5499677e-19) in cell 6 at location (46.149765 23.460513 0)

Time = 1.5

Courant Number mean: 0.09618882 max: 0.41449381
smoothSolver:  Solving for Ux, Initial residual = 0.0023244634, Final residual = 5.4279325e-10, No Iterations 3
smoothSolver:  Solving for Uy, Initial residual = 0.0012907902, Final residual = 2.9098594e-10, No Iterations 3
DICPCG:  Solving for p, Initial residual = 0.02467309, Final residual = 0.00022175362, No Iterations 20
DICPCG:  Solving for p, Initial residual = 0.0026675551, Final residual = 2.2136897e-05, No Iterations 52
DICPCG:  Solving for p, Initial residual = 0.00065591591, Final residual = 5.5570575e-06, No Iterations 45
time step continuity errors : sum local = 2.7358968e-09, global = -1.0209585e-10, cumulative = 9.5507218e-08
DICPCG:  Solving for p, Initial residual = 0.0011190301, Final residual = 1.0779435e-05, No Iterations 58
DICPCG:  Solving for p, Initial residual = 0.00020015856, Final residual = 1.8937547e-06, No Iterations 15
DICPCG:  Solving for p, Initial residual = 1.9754473e-05, Final residual = 8.6426261e-07, No Iterations 8
time step continuity errors : sum local = 4.2580246e-10, global = 1.0252917e-12, cumulative = 9.5508243e-08
ExecutionTime = 1.25 s  ClockTime = 6 s

fieldMinMax minmaxdomain write:
    min(p) = -4.2208683 in cell 189 at location (56.614857 11.932551 0)
    max(p) = 1.6353345 in cell 434 at location (4.640181 10.654973 0)
    min(U) = (0.35537662 -0.17221573 0) in cell 0 at location (0.66666667 15.333333 0)
    max(U) = (1.3672245 2.1408435 8.7858889e-19) in cell 6 at location (46.149765 23.460513 0)

Time = 1.55

Courant Number mean: 0.096204704 max: 0.41795121
smoothSolver:  Solving for Ux, Initial residual = 0.0022496463, Final residual = 4.9801056e-10, No Iterations 3
smoothSolver:  Solving for Uy, Initial residual = 0.0012608114, Final residual = 2.9699833e-10, No Iterations 3
DICPCG:  Solving for p, Initial residual = 0.024098301, Final residual = 0.00021838991, No Iterations 20
DICPCG:  Solving for p, Initial residual = 0.0026427937, Final residual = 1.8730215e-05, No Iterations 52
DICPCG:  Solving for p, Initial residual = 0.00062637443, Final residual = 5.7895151e-06, No Iterations 44
time step continuity errors : sum local = 2.7760196e-09, global = -1.2189922e-10, cumulative = 9.5386344e-08
DICPCG:  Solving for p, Initial residual = 0.0010897785, Final residual = 6.5876099e-06, No Iterations 59
DICPCG:  Solving for p, Initial residual = 0.00019614267, Final residual = 1.7687637e-06, No Iterations 15
DICPCG:  Solving for p, Initial residual = 1.8780706e-05, Final residual = 7.8271183e-07, No Iterations 8
time step continuity errors : sum local = 3.7556095e-10, global = -1.6676209e-12, cumulative = 9.5384676e-08
ExecutionTime = 1.29 s  ClockTime = 6 s

fieldMinMax minmaxdomain write:
    min(p) = -4.2677488 in cell 189 at location (56.614857 11.932551 0)
    max(p) = 1.5821178 in cell 16 at location (39.601552 1.4668119 0)
    min(U) = (0.35725248 -0.16852157 0) in cell 0 at location (0.66666667 15.333333 0)
    max(U) = (1.3663769 2.1376736 8.9959448e-19) in cell 6 at location (46.149765 23.460513 0)

Time = 1.6

Courant Number mean: 0.09622048 max: 0.42126917
smoothSolver:  Solving for Ux, Initial residual = 0.0021822104, Final residual = 4.5870457e-10, No Iterations 3
smoothSolver:  Solving for Uy, Initial residual = 0.0012325744, Final residual = 3.0058967e-10, No Iterations 3
DICPCG:  Solving for p, Initial residual = 0.023761125, Final residual = 0.00022494376, No Iterations 20
DICPCG:  Solving for p, Initial residual = 0.0026270625, Final residual = 2.3387604e-05, No Iterations 52
DICPCG:  Solving for p, Initial residual = 0.00062628477, Final residual = 5.8802145e-06, No Iterations 40
time step continuity errors : sum local = 2.748313e-09, global = -3.521392e-10, cumulative = 9.5032537e-08
DICPCG:  Solving for p, Initial residual = 0.0010560704, Final residual = 8.0279455e-06, No Iterations 59
DICPCG:  Solving for p, Initial residual = 0.0001970825, Final residual = 1.8241242e-06, No Iterations 16
DICPCG:  Solving for p, Initial residual = 1.8609566e-05, Final residual = 7.7238484e-07, No Iterations 9
time step continuity errors : sum local = 3.612642e-10, global = -9.7443395e-12, cumulative = 9.5022793e-08
ExecutionTime = 1.33 s  ClockTime = 6 s

fieldMinMax minmaxdomain write:
    min(p) = -4.3153278 in cell 189 at location (56.614857 11.932551 0)
    max(p) = 1.5343952 in cell 16 at location (39.601552 1.4668119 0)
    min(U) = (0.35910005 -0.16485712 0) in cell 0 at location (0.66666667 15.333333 0)
    max(U) = (1.3653997 2.1344956 9.1977608e-19) in cell 6 at location (46.149765 23.460513 0)

Time = 1.65

Courant Number mean: 0.096235988 max: 0.42444357
smoothSolver:  Solving for Ux, Initial residual = 0.002121522, Final residual = 4.2229436e-10, No Iterations 3
smoothSolver:  Solving for Uy, Initial residual = 0.0012041038, Final residual = 3.0331426e-10, No Iterations 3
DICPCG:  Solving for p, Initial residual = 0.023191965, Final residual = 0.00023008758, No Iterations 20
DICPCG:  Solving for p, Initial residual = 0.0025444463, Final residual = 1.9093598e-05, No Iterations 53
DICPCG:  Solving for p, Initial residual = 0.00061204756, Final residual = 6.0087299e-06, No Iterations 40
time step continuity errors : sum local = 2.7415966e-09, global = -3.1742731e-10, cumulative = 9.4705366e-08
DICPCG:  Solving for p, Initial residual = 0.0010175073, Final residual = 9.4038161e-06, No Iterations 59
DICPCG:  Solving for p, Initial residual = 0.00020023881, Final residual = 1.8478782e-06, No Iterations 17
DICPCG:  Solving for p, Initial residual = 1.8805009e-05, Final residual = 8.5841018e-07, No Iterations 9
time step continuity errors : sum local = 3.9194754e-10, global = -1.9694238e-11, cumulative = 9.4685671e-08
ExecutionTime = 1.36 s  ClockTime = 6 s

fieldMinMax minmaxdomain write:
    min(p) = -4.3615227 in cell 189 at location (56.614857 11.932551 0)
    max(p) = 1.4898055 in cell 16 at location (39.601552 1.4668119 0)
    min(U) = (0.36092012 -0.16122835 0) in cell 0 at location (0.66666667 15.333333 0)
    max(U) = (1.3642995 2.1313091 9.3785822e-19) in cell 6 at location (46.149765 23.460513 0)

Time = 1.7

Courant Number mean: 0.096251576 max: 0.42748154
smoothSolver:  Solving for Ux, Initial residual = 0.0020684357, Final residual = 3.9330671e-10, No Iterations 3
smoothSolver:  Solving for Uy, Initial residual = 0.0011761408, Final residual = 3.0418491e-10, No Iterations 3
DICPCG:  Solving for p, Initial residual = 0.022799279, Final residual = 0.00020761558, No Iterations 21
DICPCG:  Solving for p, Initial residual = 0.0024656363, Final residual = 2.3240691e-05, No Iterations 54
DICPCG:  Solving for p, Initial residual = 0.00057477386, Final residual = 5.574162e-06, No Iterations 14
time step continuity errors : sum local = 2.4932345e-09, global = -5.1855189e-10, cumulative = 9.4167119e-08
DICPCG:  Solving for p, Initial residual = 0.00099747427, Final residual = 7.0470175e-06, No Iterations 61
DICPCG:  Solving for p, Initial residual = 0.00020852872, Final residual = 1.9208047e-06, No Iterations 15
DICPCG:  Solving for p, Initial residual = 1.9033162e-05, Final residual = 9.2933278e-07, No Iterations 8
time step continuity errors : sum local = 4.1592323e-10, global = 1.6226523e-11, cumulative = 9.4183346e-08
ExecutionTime = 1.4 s  ClockTime = 6 s

fieldMinMax minmaxdomain write:
    min(p) = -4.4049629 in cell 189 at location (56.614857 11.932551 0)
    max(p) = 1.4490041 in cell 16 at location (39.601552 1.4668119 0)
    min(U) = (0.36271344 -0.15764058 0) in cell 0 at location (0.66666667 15.333333 0)
    max(U) = (1.3630823 2.1281131 9.5355026e-19) in cell 6 at location (46.149765 23.460513 0)

Time = 1.75

Courant Number mean: 0.096266985 max: 0.43039627
smoothSolver:  Solving for Ux, Initial residual = 0.0020167909, Final residual = 3.7093875e-10, No Iterations 3
smoothSolver:  Solving for Uy, Initial residual = 0.0011521361, Final residual = 3.0538063e-10, No Iterations 3
DICPCG:  Solving for p, Initial residual = 0.022496371, Final residual = 0.00022124272, No Iterations 21
DICPCG:  Solving for p, Initial residual = 0.0024417498, Final residual = 2.0729213e-05, No Iterations 57
DICPCG:  Solving for p, Initial residual = 0.00055395613, Final residual = 5.1374214e-06, No Iterations 14
time step continuity errors : sum local = 2.2588499e-09, global = -4.5547432e-10, cumulative = 9.3727872e-08
DICPCG:  Solving for p, Initial residual = 0.00096025878, Final residual = 7.6244433e-06, No Iterations 61
DICPCG:  Solving for p, Initial residual = 0.00020988793, Final residual = 2.0483756e-06, No Iterations 16
DICPCG:  Solving for p, Initial residual = 1.9902455e-05, Final residual = 7.7487406e-07, No Iterations 9
time step continuity errors : sum local = 3.4090315e-10, global = 1.9899508e-11, cumulative = 9.3747771e-08
ExecutionTime = 1.43 s  ClockTime = 6 s

fieldMinMax minmaxdomain write:
    min(p) = -4.4459104 in cell 189 at location (56.614857 11.932551 0)
    max(p) = 1.4108651 in cell 16 at location (39.601552 1.4668119 0)
    min(U) = (0.36448069 -0.15409845 0) in cell 0 at location (0.66666667 15.333333 0)
    max(U) = (1.3617526 2.1249052 9.6753199e-19) in cell 6 at location (46.149765 23.460513 0)

Time = 1.8

Courant Number mean: 0.096283203 max: 0.43319957
smoothSolver:  Solving for Ux, Initial residual = 0.0019642439, Final residual = 3.4699945e-10, No Iterations 3
smoothSolver:  Solving for Uy, Initial residual = 0.0011278743, Final residual = 3.026216e-10, No Iterations 3
DICPCG:  Solving for p, Initial residual = 0.022268065, Final residual = 0.00022121503, No Iterations 12
DICPCG:  Solving for p, Initial residual = 0.0024871218, Final residual = 1.9800726e-05, No Iterations 57
DICPCG:  Solving for p, Initial residual = 0.00054544436, Final residual = 4.9216e-06, No Iterations 41
time step continuity errors : sum local = 2.1216045e-09, global = -1.1358736e-10, cumulative = 9.3634184e-08
DICPCG:  Solving for p, Initial residual = 0.00091729854, Final residual = 7.3591255e-06, No Iterations 59
DICPCG:  Solving for p, Initial residual = 0.00018911315, Final residual = 1.7831822e-06, No Iterations 16
DICPCG:  Solving for p, Initial residual = 1.884353e-05, Final residual = 9.1258767e-07, No Iterations 8
time step continuity errors : sum local = 3.9358922e-10, global = -6.3759883e-12, cumulative = 9.3627808e-08
ExecutionTime = 1.47 s  ClockTime = 7 s

fieldMinMax minmaxdomain write:
    min(p) = -4.4932004 in cell 189 at location (56.614857 11.932551 0)
    max(p) = 1.3788055 in cell 16 at location (39.601552 1.4668119 0)
    min(U) = (0.36622238 -0.15060585 0) in cell 0 at location (0.66666667 15.333333 0)
    max(U) = (1.3603251 2.1216996 9.7840682e-19) in cell 6 at location (46.149765 23.460513 0)

Time = 1.85

Courant Number mean: 0.096302585 max: 0.43587781
smoothSolver:  Solving for Ux, Initial residual = 0.0019181243, Final residual = 3.2367117e-10, No Iterations 3
smoothSolver:  Solving for Uy, Initial residual = 0.0011020308, Final residual = 2.9802475e-10, No Iterations 3
DICPCG:  Solving for p, Initial residual = 0.023332142, Final residual = 0.00020951713, No Iterations 11
DICPCG:  Solving for p, Initial residual = 0.002479471, Final residual = 2.0940325e-05, No Iterations 55
DICPCG:  Solving for p, Initial residual = 0.00052403264, Final residual = 4.9241582e-06, No Iterations 40
time step continuity errors : sum local = 2.0732852e-09, global = -8.3678103e-11, cumulative = 9.354413e-08
DICPCG:  Solving for p, Initial residual = 0.0009118491, Final residual = 9.0901883e-06, No Iterations 53
DICPCG:  Solving for p, Initial residual = 0.00018253232, Final residual = 1.798116e-06, No Iterations 19
DICPCG:  Solving for p, Initial residual = 2.0238103e-05, Final residual = 8.889793e-07, No Iterations 11
time step continuity errors : sum local = 3.7444716e-10, global = -3.1024177e-11, cumulative = 9.3513106e-08
ExecutionTime = 1.51 s  ClockTime = 7 s

fieldMinMax minmaxdomain write:
    min(p) = -4.5427973 in cell 189 at location (56.614857 11.932551 0)
    max(p) = 1.3497753 in cell 16 at location (39.601552 1.4668119 0)
    min(U) = (0.36793882 -0.14716598 0) in cell 0 at location (0.66666667 15.333333 0)
    max(U) = (1.358806 2.1184977 9.8789378e-19) in cell 6 at location (46.149765 23.460513 0)

Time = 1.9

Courant Number mean: 0.096321271 max: 0.43842382
smoothSolver:  Solving for Ux, Initial residual = 0.0018747399, Final residual = 3.0269021e-10, No Iterations 3
smoothSolver:  Solving for Uy, Initial residual = 0.001077152, Final residual = 2.9172791e-10, No Iterations 3
DICPCG:  Solving for p, Initial residual = 0.019832438, Final residual = 0.00019783649, No Iterations 21
DICPCG:  Solving for p, Initial residual = 0.0022406858, Final residual = 1.854274e-05, No Iterations 56
DICPCG:  Solving for p, Initial residual = 0.00046497461, Final residual = 4.5951719e-06, No Iterations 17
time step continuity errors : sum local = 1.9027297e-09, global = -3.672538e-10, cumulative = 9.3145852e-08
DICPCG:  Solving for p, Initial residual = 0.00080585152, Final residual = 7.7481511e-06, No Iterations 61
DICPCG:  Solving for p, Initial residual = 0.00019907906, Final residual = 1.9799612e-06, No Iterations 16
DICPCG:  Solving for p, Initial residual = 2.2022945e-05, Final residual = 9.9205816e-07, No Iterations 8
time step continuity errors : sum local = 4.1099365e-10, global = 1.4413058e-11, cumulative = 9.3160265e-08
ExecutionTime = 1.55 s  ClockTime = 7 s

fieldMinMax minmaxdomain write:
    min(p) = -4.5833872 in cell 189 at location (56.614857 11.932551 0)
    max(p) = 1.3214222 in cell 16 at location (39.601552 1.4668119 0)
    min(U) = (0.36963031 -0.14378142 0) in cell 0 at location (0.66666667 15.333333 0)
    max(U) = (1.3571938 2.1152889 9.9721918e-19) in cell 6 at location (46.149765 23.460513 0)

Time = 1.95

Courant Number mean: 0.096339582 max: 0.44087102
smoothSolver:  Solving for Ux, Initial residual = 0.0018268423, Final residual = 2.9845138e-10, No Iterations 3
smoothSolver:  Solving for Uy, Initial residual = 0.0010555827, Final residual = 2.8620329e-10, No Iterations 3
DICPCG:  Solving for p, Initial residual = 0.019378786, Final residual = 0.00017066977, No Iterations 22
DICPCG:  Solving for p, Initial residual = 0.002189437, Final residual = 1.6328936e-05, No Iterations 57
DICPCG:  Solving for p, Initial residual = 0.00043903217, Final residual = 4.1195897e-06, No Iterations 17
time step continuity errors : sum local = 1.680659e-09, global = -3.3449708e-10, cumulative = 9.2825768e-08
DICPCG:  Solving for p, Initial residual = 0.00079593953, Final residual = 5.6253673e-06, No Iterations 62
DICPCG:  Solving for p, Initial residual = 0.00020113154, Final residual = 1.9138168e-06, No Iterations 17
DICPCG:  Solving for p, Initial residual = 2.2672636e-05, Final residual = 9.4666543e-07, No Iterations 9
time step continuity errors : sum local = 3.8641422e-10, global = 1.3135623e-11, cumulative = 9.2838903e-08
ExecutionTime = 1.58 s  ClockTime = 7 s

fieldMinMax minmaxdomain write:
    min(p) = -4.6230829 in cell 189 at location (56.614857 11.932551 0)
    max(p) = 1.2957274 in cell 16 at location (39.601552 1.4668119 0)
    min(U) = (0.37129705 -0.14045422 0) in cell 0 at location (0.66666667 15.333333 0)
    max(U) = (1.3554916 2.1120736 1.0048585e-18) in cell 6 at location (46.149765 23.460513 0)

Time = 2

Courant Number mean: 0.096357812 max: 0.44323079
smoothSolver:  Solving for Ux, Initial residual = 0.0017826457, Final residual = 2.9306574e-10, No Iterations 3
smoothSolver:  Solving for Uy, Initial residual = 0.0010346919, Final residual = 2.8000548e-10, No Iterations 3
DICPCG:  Solving for p, Initial residual = 0.019518454, Final residual = 0.0001819523, No Iterations 22
DICPCG:  Solving for p, Initial residual = 0.0022351154, Final residual = 1.8746497e-05, No Iterations 57
DICPCG:  Solving for p, Initial residual = 0.00042154583, Final residual = 3.565182e-06, No Iterations 17
time step continuity errors : sum local = 1.435612e-09, global = -2.4822519e-10, cumulative = 9.2590678e-08
DICPCG:  Solving for p, Initial residual = 0.00080544141, Final residual = 5.6625411e-06, No Iterations 62
DICPCG:  Solving for p, Initial residual = 0.00020321762, Final residual = 1.9271115e-06, No Iterations 17
DICPCG:  Solving for p, Initial residual = 2.3209751e-05, Final residual = 9.716572e-07, No Iterations 9
time step continuity errors : sum local = 3.9145901e-10, global = 1.2051162e-11, cumulative = 9.2602729e-08
ExecutionTime = 1.62 s  ClockTime = 7 s

fieldMinMax minmaxdomain write:
    min(p) = -4.6599638 in cell 189 at location (56.614857 11.932551 0)
    max(p) = 1.2734186 in cell 16 at location (39.601552 1.4668119 0)
    min(U) = (0.37293921 -0.13718594 0) in cell 0 at location (0.66666667 15.333333 0)
    max(U) = (1.3537029 2.1088533 1.0106678e-18) in cell 6 at location (46.149765 23.460513 0)

Time = 2.05

Courant Number mean: 0.096375537 max: 0.44553197
smoothSolver:  Solving for Ux, Initial residual = 0.0017437667, Final residual = 2.8979765e-10, No Iterations 3
smoothSolver:  Solving for Uy, Initial residual = 0.0010147593, Final residual = 2.7470566e-10, No Iterations 3
DICPCG:  Solving for p, Initial residual = 0.01899603, Final residual = 0.00017524821, No Iterations 22
DICPCG:  Solving for p, Initial residual = 0.0021041096, Final residual = 1.9848645e-05, No Iterations 56
DICPCG:  Solving for p, Initial residual = 0.00039579711, Final residual = 3.5553136e-06, No Iterations 17
time step continuity errors : sum local = 1.4146749e-09, global = -2.5240377e-10, cumulative = 9.2350326e-08
DICPCG:  Solving for p, Initial residual = 0.00077652325, Final residual = 5.6420368e-06, No Iterations 62
DICPCG:  Solving for p, Initial residual = 0.00020089162, Final residual = 1.9970457e-06, No Iterations 17
DICPCG:  Solving for p, Initial residual = 2.3978842e-05, Final residual = 8.1869736e-07, No Iterations 10
time step continuity errors : sum local = 3.2591872e-10, global = 1.075284e-11, cumulative = 9.2361078e-08
ExecutionTime = 1.66 s  ClockTime = 7 s

fieldMinMax minmaxdomain write:
    min(p) = -4.6969553 in cell 189 at location (56.614857 11.932551 0)
    max(p) = 1.2603436 in cell 1 at location (52.87257 -4.1748977 0)
    min(U) = (0.37455681 -0.13397764 0) in cell 0 at location (0.66666667 15.333333 0)
    max(U) = (1.3518296 2.1056258 1.0160486e-18) in cell 6 at location (46.149765 23.460513 0)

Time = 2.1

Courant Number mean: 0.096392951 max: 0.44776484
smoothSolver:  Solving for Ux, Initial residual = 0.0017115132, Final residual = 2.8508977e-10, No Iterations 3
smoothSolver:  Solving for Uy, Initial residual = 0.00099467929, Final residual = 2.6799909e-10, No Iterations 3
DICPCG:  Solving for p, Initial residual = 0.018441134, Final residual = 0.00016361934, No Iterations 21
DICPCG:  Solving for p, Initial residual = 0.002216407, Final residual = 1.7134192e-05, No Iterations 46
DICPCG:  Solving for p, Initial residual = 0.00037090362, Final residual = 3.4490354e-06, No Iterations 16
time step continuity errors : sum local = 1.3529478e-09, global = -1.6678506e-10, cumulative = 9.2194293e-08
DICPCG:  Solving for p, Initial residual = 0.0007841154, Final residual = 7.4958873e-06, No Iterations 37
DICPCG:  Solving for p, Initial residual = 0.00021306677, Final residual = 2.0234032e-06, No Iterations 49
DICPCG:  Solving for p, Initial residual = 3.3914978e-05, Final residual = 9.5524941e-07, No Iterations 18
time step continuity errors : sum local = 3.7482735e-10, global = 1.8389195e-11, cumulative = 9.2212683e-08
ExecutionTime = 1.7 s  ClockTime = 7 s

fieldMinMax minmaxdomain write:
    min(p) = -4.7428067 in cell 189 at location (56.614857 11.932551 0)
    max(p) = 1.2732284 in cell 1 at location (52.87257 -4.1748977 0)
    min(U) = (0.37614991 -0.13083003 0) in cell 0 at location (0.66666667 15.333333 0)
    max(U) = (1.3498863 2.1024109 1.0179937e-18) in cell 6 at location (46.149765 23.460513 0)

Time = 2.15

Courant Number mean: 0.096411085 max: 0.44992777
smoothSolver:  Solving for Ux, Initial residual = 0.0016751364, Final residual = 2.7948694e-10, No Iterations 3
smoothSolver:  Solving for Uy, Initial residual = 0.00097655067, Final residual = 2.612777e-10, No Iterations 3
DICPCG:  Solving for p, Initial residual = 0.017862587, Final residual = 0.00016671052, No Iterations 21
DICPCG:  Solving for p, Initial residual = 0.0021399429, Final residual = 2.030131e-05, No Iterations 56
DICPCG:  Solving for p, Initial residual = 0.0003571352, Final residual = 3.4466712e-06, No Iterations 16
time step continuity errors : sum local = 1.335073e-09, global = -1.9046967e-10, cumulative = 9.2022213e-08
DICPCG:  Solving for p, Initial residual = 0.00074211677, Final residual = 7.2337232e-06, No Iterations 37
DICPCG:  Solving for p, Initial residual = 0.00020252898, Final residual = 1.9085175e-06, No Iterations 49
DICPCG:  Solving for p, Initial residual = 3.3043754e-05, Final residual = 9.751952e-07, No Iterations 17
time step continuity errors : sum local = 3.7786065e-10, global = 2.1752056e-11, cumulative = 9.2043965e-08
ExecutionTime = 1.74 s  ClockTime = 7 s

fieldMinMax minmaxdomain write:
    min(p) = -4.7851379 in cell 189 at location (56.614857 11.932551 0)
    max(p) = 1.2863762 in cell 1 at location (52.87257 -4.1748977 0)
    min(U) = (0.37771845 -0.12774346 0) in cell 0 at location (0.66666667 15.333333 0)
    max(U) = (1.3478717 2.0992007 1.0195682e-18) in cell 6 at location (46.149765 23.460513 0)

Time = 2.2

Courant Number mean: 0.096429299 max: 0.45202383
smoothSolver:  Solving for Ux, Initial residual = 0.0016406216, Final residual = 2.7276162e-10, No Iterations 3
smoothSolver:  Solving for Uy, Initial residual = 0.00095905395, Final residual = 2.5380433e-10, No Iterations 3
DICPCG:  Solving for p, Initial residual = 0.017573458, Final residual = 0.0001588257, No Iterations 21
DICPCG:  Solving for p, Initial residual = 0.0021105315, Final residual = 2.1036498e-05, No Iterations 47
DICPCG:  Solving for p, Initial residual = 0.00032244373, Final residual = 3.2088283e-06, No Iterations 17
time step continuity errors : sum local = 1.2288994e-09, global = -6.3452716e-11, cumulative = 9.1980512e-08
DICPCG:  Solving for p, Initial residual = 0.00072288243, Final residual = 6.7449268e-06, No Iterations 33
DICPCG:  Solving for p, Initial residual = 0.00019838431, Final residual = 1.9465419e-06, No Iterations 54
DICPCG:  Solving for p, Initial residual = 2.9299354e-05, Final residual = 9.5845262e-07, No Iterations 8
time step continuity errors : sum local = 3.6713799e-10, global = -1.9073245e-11, cumulative = 9.1961439e-08
ExecutionTime = 1.78 s  ClockTime = 7 s

fieldMinMax minmaxdomain write:
    min(p) = -4.827426 in cell 189 at location (56.614857 11.932551 0)
    max(p) = 1.3011794 in cell 1 at location (52.87257 -4.1748977 0)
    min(U) = (0.37926238 -0.12471805 0) in cell 0 at location (0.66666667 15.333333 0)
    max(U) = (1.3457936 2.0960021 1.0192418e-18) in cell 6 at location (46.149765 23.460513 0)

Time = 2.25

Courant Number mean: 0.096447177 max: 0.4540605
smoothSolver:  Solving for Ux, Initial residual = 0.0016054238, Final residual = 2.6294308e-10, No Iterations 3
smoothSolver:  Solving for Uy, Initial residual = 0.00094295005, Final residual = 2.4582568e-10, No Iterations 3
DICPCG:  Solving for p, Initial residual = 0.016319173, Final residual = 0.00015448381, No Iterations 22
DICPCG:  Solving for p, Initial residual = 0.0018834678, Final residual = 1.3683311e-05, No Iterations 57
DICPCG:  Solving for p, Initial residual = 0.00030610706, Final residual = 2.3725386e-06, No Iterations 17
time step continuity errors : sum local = 9.0058299e-10, global = -1.4379491e-10, cumulative = 9.1817644e-08
DICPCG:  Solving for p, Initial residual = 0.00065874229, Final residual = 6.1564925e-06, No Iterations 37
DICPCG:  Solving for p, Initial residual = 0.00018273676, Final residual = 1.7524214e-06, No Iterations 47
DICPCG:  Solving for p, Initial residual = 2.8667427e-05, Final residual = 8.7377279e-07, No Iterations 8
time step continuity errors : sum local = 3.3177435e-10, global = 2.110947e-11, cumulative = 9.1838754e-08
ExecutionTime = 1.82 s  ClockTime = 7 s

fieldMinMax minmaxdomain write:
    min(p) = -4.8646397 in cell 189 at location (56.614857 11.932551 0)
    max(p) = 1.3176554 in cell 1 at location (52.87257 -4.1748977 0)
    min(U) = (0.38078167 -0.1217537 0) in cell 0 at location (0.66666667 15.333333 0)
    max(U) = (1.3436462 2.0927992 1.0199349e-18) in cell 6 at location (46.149765 23.460513 0)

Time = 2.3

Courant Number mean: 0.096464749 max: 0.45603692
smoothSolver:  Solving for Ux, Initial residual = 0.0015754285, Final residual = 2.5107953e-10, No Iterations 3
smoothSolver:  Solving for Uy, Initial residual = 0.00092749624, Final residual = 2.3622588e-10, No Iterations 3
DICPCG:  Solving for p, Initial residual = 0.016283623, Final residual = 0.00015615453, No Iterations 22
DICPCG:  Solving for p, Initial residual = 0.0018758231, Final residual = 1.4294756e-05, No Iterations 57
DICPCG:  Solving for p, Initial residual = 0.00030586602, Final residual = 3.0331604e-06, No Iterations 16
time step continuity errors : sum local = 1.1419505e-09, global = -1.2470161e-10, cumulative = 9.1714052e-08
DICPCG:  Solving for p, Initial residual = 0.00066121917, Final residual = 6.3990697e-06, No Iterations 34
DICPCG:  Solving for p, Initial residual = 0.00017799355, Final residual = 1.4329099e-06, No Iterations 44
DICPCG:  Solving for p, Initial residual = 2.8662588e-05, Final residual = 8.1220581e-07, No Iterations 14
time step continuity errors : sum local = 3.0588469e-10, global = -2.511002e-11, cumulative = 9.1688942e-08
ExecutionTime = 1.85 s  ClockTime = 7 s

fieldMinMax minmaxdomain write:
    min(p) = -4.9004067 in cell 189 at location (56.614857 11.932551 0)
    max(p) = 1.3342085 in cell 1 at location (52.87257 -4.1748977 0)
    min(U) = (0.38227631 -0.1188502 0) in cell 0 at location (0.66666667 15.333333 0)
    max(U) = (1.3414298 2.0895855 1.0206264e-18) in cell 6 at location (46.149765 23.460513 0)

Time = 2.35

Courant Number mean: 0.096481948 max: 0.45795553
smoothSolver:  Solving for Ux, Initial residual = 0.0015458325, Final residual = 2.3791991e-10, No Iterations 3
smoothSolver:  Solving for Uy, Initial residual = 0.00091382716, Final residual = 2.2595303e-10, No Iterations 3
DICPCG:  Solving for p, Initial residual = 0.015481579, Final residual = 0.00014541836, No Iterations 21
DICPCG:  Solving for p, Initial residual = 0.0018259746, Final residual = 1.6947088e-05, No Iterations 48
DICPCG:  Solving for p, Initial residual = 0.00027081748, Final residual = 2.5766854e-06, No Iterations 19
time step continuity errors : sum local = 9.6197537e-10, global = 3.6246014e-11, cumulative = 9.1725188e-08
DICPCG:  Solving for p, Initial residual = 0.00064344315, Final residual = 5.8229776e-06, No Iterations 33
DICPCG:  Solving for p, Initial residual = 0.00018035185, Final residual = 1.5936172e-06, No Iterations 19
DICPCG:  Solving for p, Initial residual = 2.478344e-05, Final residual = 8.836097e-07, No Iterations 13
time step continuity errors : sum local = 3.2992165e-10, global = -5.5185039e-13, cumulative = 9.1724636e-08
ExecutionTime = 1.89 s  ClockTime = 7 s

fieldMinMax minmaxdomain write:
    min(p) = -4.9425367 in cell 189 at location (56.614857 11.932551 0)
    max(p) = 1.3497043 in cell 1 at location (52.87257 -4.1748977 0)
    min(U) = (0.38374627 -0.11600716 0) in cell 0 at location (0.66666667 15.333333 0)
    max(U) = (1.3391585 2.0863771 1.0189133e-18) in cell 6 at location (46.149765 23.460513 0)

Time = 2.4

Courant Number mean: 0.096499634 max: 0.45983206
smoothSolver:  Solving for Ux, Initial residual = 0.0015159176, Final residual = 2.2781267e-10, No Iterations 3
smoothSolver:  Solving for Uy, Initial residual = 0.00090197183, Final residual = 2.161284e-10, No Iterations 3
DICPCG:  Solving for p, Initial residual = 0.015906783, Final residual = 0.00015704713, No Iterations 18
DICPCG:  Solving for p, Initial residual = 0.0019584445, Final residual = 1.7947271e-05, No Iterations 27
DICPCG:  Solving for p, Initial residual = 0.00026621806, Final residual = 2.6096177e-06, No Iterations 52
time step continuity errors : sum local = 9.6557865e-10, global = 1.2792672e-11, cumulative = 9.1737429e-08
DICPCG:  Solving for p, Initial residual = 0.00069157984, Final residual = 5.8376177e-06, No Iterations 28
DICPCG:  Solving for p, Initial residual = 0.0001933471, Final residual = 1.8855675e-06, No Iterations 17
DICPCG:  Solving for p, Initial residual = 2.7945395e-05, Final residual = 8.2800425e-07, No Iterations 46
time step continuity errors : sum local = 3.0633067e-10, global = -1.3695315e-11, cumulative = 9.1723733e-08
ExecutionTime = 1.92 s  ClockTime = 7 s

fieldMinMax minmaxdomain write:
    min(p) = -4.9899422 in cell 189 at location (56.614857 11.932551 0)
    max(p) = 1.3646852 in cell 1 at location (52.87257 -4.1748977 0)
    min(U) = (0.38519163 -0.11322423 0) in cell 0 at location (0.66666667 15.333333 0)
    max(U) = (1.336845 2.0831875 1.0148129e-18) in cell 6 at location (46.149765 23.460513 0)

Time = 2.45

Courant Number mean: 0.096517308 max: 0.46168126
smoothSolver:  Solving for Ux, Initial residual = 0.0014894884, Final residual = 2.2002675e-10, No Iterations 3
smoothSolver:  Solving for Uy, Initial residual = 0.0008919763, Final residual = 2.0648993e-10, No Iterations 3
DICPCG:  Solving for p, Initial residual = 0.015063581, Final residual = 0.00012534601, No Iterations 21
DICPCG:  Solving for p, Initial residual = 0.0017898075, Final residual = 1.6960443e-05, No Iterations 27
DICPCG:  Solving for p, Initial residual = 0.00024378293, Final residual = 2.0790846e-06, No Iterations 49
time step continuity errors : sum local = 7.6347448e-10, global = 2.2738554e-11, cumulative = 9.1746472e-08
DICPCG:  Solving for p, Initial residual = 0.00064688592, Final residual = 5.9788131e-06, No Iterations 28
DICPCG:  Solving for p, Initial residual = 0.00018054691, Final residual = 1.5734382e-06, No Iterations 18
DICPCG:  Solving for p, Initial residual = 2.658441e-05, Final residual = 9.7843673e-07, No Iterations 14
time step continuity errors : sum local = 3.5923698e-10, global = 7.517586e-11, cumulative = 9.1821648e-08
ExecutionTime = 1.96 s  ClockTime = 7 s

fieldMinMax minmaxdomain write:
    min(p) = -5.033866 in cell 189 at location (56.614857 11.932551 0)
    max(p) = 1.3805341 in cell 1 at location (52.87257 -4.1748977 0)
    min(U) = (0.38661261 -0.11050104 0) in cell 0 at location (0.66666667 15.333333 0)
    max(U) = (1.3344848 2.0800015 1.0111918e-18) in cell 6 at location (46.149765 23.460513 0)

Time = 2.5

Courant Number mean: 0.096534512 max: 0.46350215
smoothSolver:  Solving for Ux, Initial residual = 0.0014674368, Final residual = 2.1765662e-10, No Iterations 3
smoothSolver:  Solving for Uy, Initial residual = 0.00088271862, Final residual = 1.9670388e-10, No Iterations 3
DICPCG:  Solving for p, Initial residual = 0.01378833, Final residual = 0.00013145774, No Iterations 22
DICPCG:  Solving for p, Initial residual = 0.0016908449, Final residual = 1.5836039e-05, No Iterations 29
DICPCG:  Solving for p, Initial residual = 0.00024895505, Final residual = 1.698853e-06, No Iterations 59
time step continuity errors : sum local = 6.2012683e-10, global = 6.3357387e-12, cumulative = 9.1827984e-08
DICPCG:  Solving for p, Initial residual = 0.00060827495, Final residual = 5.4644559e-06, No Iterations 33
DICPCG:  Solving for p, Initial residual = 0.00016626895, Final residual = 1.494669e-06, No Iterations 19
DICPCG:  Solving for p, Initial residual = 2.3701761e-05, Final residual = 7.4236149e-07, No Iterations 14
time step continuity errors : sum local = 2.7089011e-10, global = -4.5935208e-11, cumulative = 9.1782048e-08
ExecutionTime = 2 s  ClockTime = 7 s

fieldMinMax minmaxdomain write:
    min(p) = -5.0732854 in cell 189 at location (56.614857 11.932551 0)
    max(p) = 1.3968985 in cell 1 at location (52.87257 -4.1748977 0)
    min(U) = (0.38800972 -0.1078375 0) in cell 0 at location (0.66666667 15.333333 0)
    max(U) = (1.3320712 2.0768 1.0091102e-18) in cell 6 at location (46.149765 23.460513 0)

Time = 2.55

Courant Number mean: 0.096551248 max: 0.46529069
smoothSolver:  Solving for Ux, Initial residual = 0.0014473499, Final residual = 2.1637454e-10, No Iterations 3
smoothSolver:  Solving for Uy, Initial residual = 0.00087386341, Final residual = 1.8669642e-10, No Iterations 3
DICPCG:  Solving for p, Initial residual = 0.013345095, Final residual = 0.0001283299, No Iterations 22
DICPCG:  Solving for p, Initial residual = 0.0016624626, Final residual = 1.3087219e-05, No Iterations 29
DICPCG:  Solving for p, Initial residual = 0.00024154973, Final residual = 1.5907202e-06, No Iterations 59
time step continuity errors : sum local = 5.7755828e-10, global = 2.3443325e-12, cumulative = 9.1784393e-08
DICPCG:  Solving for p, Initial residual = 0.00058918348, Final residual = 5.7255312e-06, No Iterations 29
DICPCG:  Solving for p, Initial residual = 0.00016106525, Final residual = 1.6068944e-06, No Iterations 25
[...]
DICPCG:  Solving for p, Initial residual = 0.00023046075, Final residual = 1.8612253e-06, No Iterations 18
DICPCG:  Solving for p, Initial residual = 3.511923e-05, Final residual = 8.7658807e-07, No Iterations 10
DICPCG:  Solving for p, Initial residual = 3.9849681e-06, Final residual = 8.503816e-07, No Iterations 1
time step continuity errors : sum local = 3.1130921e-10, global = 9.776956e-12, cumulative = 9.8278146e-08
DICPCG:  Solving for p, Initial residual = 7.4035128e-06, Final residual = 8.7338939e-07, No Iterations 8
DICPCG:  Solving for p, Initial residual = 2.8769816e-06, Final residual = 6.5977268e-07, No Iterations 1
DICPCG:  Solving for p, Initial residual = 7.5466209e-07, Final residual = 7.5466209e-07, No Iterations 0
time step continuity errors : sum local = 2.7626787e-10, global = 1.3525982e-11, cumulative = 9.8291672e-08
ExecutionTime = 31.01 s  ClockTime = 36 s

fieldMinMax minmaxdomain write:
    min(p) = -6.1018218 in cell 189 at location (56.614857 11.932551 0)
    max(p) = 1.7215775 in cell 1 at location (52.87257 -4.1748977 0)
    min(U) = (-0.033690149 -0.007572891 -5.2248067e-19) in cell 87 at location (37.871504 1.0835614 0)
    max(U) = (1.2066453 3.2402082 8.4516495e-19) in cell 189 at location (56.614857 11.932551 0)

Time = 49.45

Courant Number mean: 0.097054061 max: 0.51738195
smoothSolver:  Solving for Ux, Initial residual = 9.2110758e-05, Final residual = 3.2459912e-10, No Iterations 2
smoothSolver:  Solving for Uy, Initial residual = 6.5332427e-05, Final residual = 3.0031897e-10, No Iterations 2
DICPCG:  Solving for p, Initial residual = 0.00023624757, Final residual = 2.1429286e-06, No Iterations 18
DICPCG:  Solving for p, Initial residual = 3.5089015e-05, Final residual = 9.6074534e-07, No Iterations 11
DICPCG:  Solving for p, Initial residual = 4.194822e-06, Final residual = 8.8101671e-07, No Iterations 1
time step continuity errors : sum local = 3.2256903e-10, global = 1.2418437e-11, cumulative = 9.830409e-08
DICPCG:  Solving for p, Initial residual = 7.4494126e-06, Final residual = 8.9707553e-07, No Iterations 6
DICPCG:  Solving for p, Initial residual = 2.8493436e-06, Final residual = 6.6931053e-07, No Iterations 1
DICPCG:  Solving for p, Initial residual = 7.6510878e-07, Final residual = 7.6510878e-07, No Iterations 0
time step continuity errors : sum local = 2.8013117e-10, global = 1.0771617e-11, cumulative = 9.8314862e-08
ExecutionTime = 31.04 s  ClockTime = 36 s

fieldMinMax minmaxdomain write:
    min(p) = -6.101396 in cell 189 at location (56.614857 11.932551 0)
    max(p) = 1.7215229 in cell 1 at location (52.87257 -4.1748977 0)
    min(U) = (-0.034647341 -0.0075842685 -5.223464e-19) in cell 87 at location (37.871504 1.0835614 0)
    max(U) = (1.2066021 3.2401287 8.450965e-19) in cell 189 at location (56.614857 11.932551 0)

Time = 49.5

Courant Number mean: 0.097053336 max: 0.51737303
smoothSolver:  Solving for Ux, Initial residual = 9.1941663e-05, Final residual = 3.2371101e-10, No Iterations 2
smoothSolver:  Solving for Uy, Initial residual = 6.5220697e-05, Final residual = 2.9996092e-10, No Iterations 2
DICPCG:  Solving for p, Initial residual = 0.00024787225, Final residual = 2.0282012e-06, No Iterations 18
DICPCG:  Solving for p, Initial residual = 3.591511e-05, Final residual = 8.4810693e-07, No Iterations 11
DICPCG:  Solving for p, Initial residual = 4.1891215e-06, Final residual = 8.4910932e-07, No Iterations 1
time step continuity errors : sum local = 3.1093767e-10, global = -1.6473182e-11, cumulative = 9.8298389e-08
DICPCG:  Solving for p, Initial residual = 7.3356483e-06, Final residual = 9.1274909e-07, No Iterations 6
DICPCG:  Solving for p, Initial residual = 2.8472418e-06, Final residual = 6.9051424e-07, No Iterations 1
DICPCG:  Solving for p, Initial residual = 7.8252743e-07, Final residual = 7.8252743e-07, No Iterations 0
time step continuity errors : sum local = 2.8655566e-10, global = -1.732877e-11, cumulative = 9.828106e-08
ExecutionTime = 31.06 s  ClockTime = 36 s

fieldMinMax minmaxdomain write:
    min(p) = -6.1009653 in cell 189 at location (56.614857 11.932551 0)
    max(p) = 1.7214998 in cell 1 at location (52.87257 -4.1748977 0)
    min(U) = (-0.035606651 -0.0075940746 -5.2221572e-19) in cell 87 at location (37.871504 1.0835614 0)
    max(U) = (1.2065591 3.2400495 8.4502698e-19) in cell 189 at location (56.614857 11.932551 0)

Time = 49.55

Courant Number mean: 0.097052611 max: 0.51736413
smoothSolver:  Solving for Ux, Initial residual = 9.1767469e-05, Final residual = 3.227112e-10, No Iterations 2
smoothSolver:  Solving for Uy, Initial residual = 6.5112763e-05, Final residual = 2.9938729e-10, No Iterations 2
DICPCG:  Solving for p, Initial residual = 0.00026823059, Final residual = 2.5787739e-06, No Iterations 16
DICPCG:  Solving for p, Initial residual = 3.7434286e-05, Final residual = 9.5434487e-07, No Iterations 14
DICPCG:  Solving for p, Initial residual = 4.6157238e-06, Final residual = 9.1226972e-07, No Iterations 1
time step continuity errors : sum local = 3.341352e-10, global = -4.2471414e-11, cumulative = 9.8238588e-08
DICPCG:  Solving for p, Initial residual = 7.4546174e-06, Final residual = 9.4803496e-07, No Iterations 6
DICPCG:  Solving for p, Initial residual = 2.8725144e-06, Final residual = 7.0609544e-07, No Iterations 1
DICPCG:  Solving for p, Initial residual = 8.0201293e-07, Final residual = 8.0201293e-07, No Iterations 0
time step continuity errors : sum local = 2.9375149e-10, global = -5.6133686e-11, cumulative = 9.8182455e-08
ExecutionTime = 31.09 s  ClockTime = 36 s

fieldMinMax minmaxdomain write:
    min(p) = -6.100519 in cell 189 at location (56.614857 11.932551 0)
    max(p) = 1.7214892 in cell 1 at location (52.87257 -4.1748977 0)
    min(U) = (-0.036568082 -0.0076022719 -5.2209179e-19) in cell 87 at location (37.871504 1.0835614 0)
    max(U) = (1.2065161 3.2399705 8.4495374e-19) in cell 189 at location (56.614857 11.932551 0)

Time = 49.6

Courant Number mean: 0.097051886 max: 0.51735525
smoothSolver:  Solving for Ux, Initial residual = 9.1591763e-05, Final residual = 3.2177846e-10, No Iterations 2
smoothSolver:  Solving for Uy, Initial residual = 6.501496e-05, Final residual = 2.9885398e-10, No Iterations 2
DICPCG:  Solving for p, Initial residual = 0.00030793139, Final residual = 2.767334e-06, No Iterations 15
DICPCG:  Solving for p, Initial residual = 3.9836421e-05, Final residual = 9.7546639e-07, No Iterations 39
DICPCG:  Solving for p, Initial residual = 6.4032471e-06, Final residual = 7.470965e-07, No Iterations 2
time step continuity errors : sum local = 2.737268e-10, global = 5.6271025e-13, cumulative = 9.8183017e-08
DICPCG:  Solving for p, Initial residual = 7.5170864e-06, Final residual = 9.8894889e-07, No Iterations 8
DICPCG:  Solving for p, Initial residual = 3.0935904e-06, Final residual = 6.8659732e-07, No Iterations 1
DICPCG:  Solving for p, Initial residual = 7.9711697e-07, Final residual = 7.9711697e-07, No Iterations 0
time step continuity errors : sum local = 2.9205342e-10, global = 7.8639804e-12, cumulative = 9.8190881e-08
ExecutionTime = 31.12 s  ClockTime = 36 s

fieldMinMax minmaxdomain write:
    min(p) = -6.0998576 in cell 189 at location (56.614857 11.932551 0)
    max(p) = 1.7216973 in cell 1 at location (52.87257 -4.1748977 0)
    min(U) = (-0.037531546 -0.0076088032 -5.221124e-19) in cell 87 at location (37.871504 1.0835614 0)
    max(U) = (1.2064735 3.2398919 8.4483166e-19) in cell 189 at location (56.614857 11.932551 0)

Time = 49.65

Courant Number mean: 0.097051168 max: 0.51734642
smoothSolver:  Solving for Ux, Initial residual = 9.141772e-05, Final residual = 3.2039577e-10, No Iterations 2
smoothSolver:  Solving for Uy, Initial residual = 6.493512e-05, Final residual = 2.98076e-10, No Iterations 2
DICPCG:  Solving for p, Initial residual = 0.00025182028, Final residual = 2.4107841e-06, No Iterations 19
DICPCG:  Solving for p, Initial residual = 4.359901e-05, Final residual = 8.6473612e-07, No Iterations 21
DICPCG:  Solving for p, Initial residual = 5.1401414e-06, Final residual = 9.9070842e-07, No Iterations 1
time step continuity errors : sum local = 3.6298358e-10, global = 3.0794972e-11, cumulative = 9.8221676e-08
DICPCG:  Solving for p, Initial residual = 7.8578088e-06, Final residual = 9.9957719e-07, No Iterations 9
DICPCG:  Solving for p, Initial residual = 3.1299208e-06, Final residual = 6.5699984e-07, No Iterations 1
DICPCG:  Solving for p, Initial residual = 7.6711652e-07, Final residual = 7.6711652e-07, No Iterations 0
time step continuity errors : sum local = 2.8106183e-10, global = 2.4297458e-11, cumulative = 9.8245974e-08
ExecutionTime = 31.15 s  ClockTime = 36 s

fieldMinMax minmaxdomain write:
    min(p) = -6.0994887 in cell 189 at location (56.614857 11.932551 0)
    max(p) = 1.7216414 in cell 1 at location (52.87257 -4.1748977 0)
    min(U) = (-0.038498366 -0.007613888 -5.2187219e-19) in cell 87 at location (37.871504 1.0835614 0)
    max(U) = (1.2064309 3.2398135 8.4477579e-19) in cell 189 at location (56.614857 11.932551 0)

Time = 49.7

Courant Number mean: 0.097050449 max: 0.51733762
smoothSolver:  Solving for Ux, Initial residual = 9.1283097e-05, Final residual = 3.2001072e-10, No Iterations 2
smoothSolver:  Solving for Uy, Initial residual = 6.4849458e-05, Final residual = 2.9742543e-10, No Iterations 2
DICPCG:  Solving for p, Initial residual = 0.00037711211, Final residual = 2.9092016e-06, No Iterations 15
DICPCG:  Solving for p, Initial residual = 4.7571546e-05, Final residual = 9.7597957e-07, No Iterations 13
DICPCG:  Solving for p, Initial residual = 5.65447e-06, Final residual = 7.6281201e-07, No Iterations 2
time step continuity errors : sum local = 2.7941238e-10, global = 5.4298427e-12, cumulative = 9.8251404e-08
DICPCG:  Solving for p, Initial residual = 7.787167e-06, Final residual = 9.1994326e-07, No Iterations 6
DICPCG:  Solving for p, Initial residual = 2.9472838e-06, Final residual = 6.9544847e-07, No Iterations 1
DICPCG:  Solving for p, Initial residual = 7.8795029e-07, Final residual = 7.8795029e-07, No Iterations 0
time step continuity errors : sum local = 2.8862009e-10, global = 3.1471022e-12, cumulative = 9.8254551e-08
ExecutionTime = 31.18 s  ClockTime = 36 s

fieldMinMax minmaxdomain write:
    min(p) = -6.0990499 in cell 189 at location (56.614857 11.932551 0)
    max(p) = 1.7216208 in cell 1 at location (52.87257 -4.1748977 0)
    min(U) = (-0.03946739 -0.0076172475 -5.2173466e-19) in cell 87 at location (37.871504 1.0835614 0)
    max(U) = (1.2063883 3.2397353 8.4470387e-19) in cell 189 at location (56.614857 11.932551 0)

Time = 49.75

Courant Number mean: 0.097049939 max: 0.51732884
smoothSolver:  Solving for Ux, Initial residual = 9.1130203e-05, Final residual = 3.1923158e-10, No Iterations 2
smoothSolver:  Solving for Uy, Initial residual = 6.4644691e-05, Final residual = 2.9698426e-10, No Iterations 2
DICPCG:  Solving for p, Initial residual = 0.00032305117, Final residual = 3.1113097e-06, No Iterations 14
DICPCG:  Solving for p, Initial residual = 4.2408448e-05, Final residual = 9.4372628e-07, No Iterations 8
DICPCG:  Solving for p, Initial residual = 4.879691e-06, Final residual = 7.9995907e-07, No Iterations 2
time step continuity errors : sum local = 2.9297528e-10, global = -3.5635764e-11, cumulative = 9.8218915e-08
DICPCG:  Solving for p, Initial residual = 7.6021092e-06, Final residual = 8.3782132e-07, No Iterations 10
DICPCG:  Solving for p, Initial residual = 2.9680834e-06, Final residual = 5.7913315e-07, No Iterations 1
DICPCG:  Solving for p, Initial residual = 6.7594542e-07, Final residual = 6.7594542e-07, No Iterations 0
time step continuity errors : sum local = 2.4755673e-10, global = -1.8425289e-11, cumulative = 9.820049e-08
ExecutionTime = 31.22 s  ClockTime = 36 s

fieldMinMax minmaxdomain write:
    min(p) = -6.0986187 in cell 189 at location (56.614857 11.932551 0)
    max(p) = 1.7216033 in cell 1 at location (52.87257 -4.1748977 0)
    min(U) = (-0.040437925 -0.0076186992 -5.2166989e-19) in cell 87 at location (37.871504 1.0835614 0)
    max(U) = (1.206346 3.2396574 8.4463386e-19) in cell 189 at location (56.614857 11.932551 0)

Time = 49.8

Courant Number mean: 0.097049428 max: 0.51732009
smoothSolver:  Solving for Ux, Initial residual = 9.0964596e-05, Final residual = 3.1769079e-10, No Iterations 2
smoothSolver:  Solving for Uy, Initial residual = 6.4438591e-05, Final residual = 2.9620595e-10, No Iterations 2
DICPCG:  Solving for p, Initial residual = 0.00050159553, Final residual = 4.6121871e-06, No Iterations 18
DICPCG:  Solving for p, Initial residual = 6.5135494e-05, Final residual = 8.9154145e-07, No Iterations 25
DICPCG:  Solving for p, Initial residual = 9.0791104e-06, Final residual = 6.9636181e-07, No Iterations 3
time step continuity errors : sum local = 2.5490011e-10, global = -7.5785642e-11, cumulative = 9.8124704e-08
DICPCG:  Solving for p, Initial residual = 8.8931946e-06, Final residual = 9.2978497e-07, No Iterations 42
DICPCG:  Solving for p, Initial residual = 4.6437907e-06, Final residual = 8.6045832e-07, No Iterations 1
DICPCG:  Solving for p, Initial residual = 1.0133707e-06, Final residual = 5.4531801e-07, No Iterations 1
time step continuity errors : sum local = 1.9961642e-10, global = 5.5623612e-12, cumulative = 9.8130266e-08
ExecutionTime = 31.25 s  ClockTime = 36 s

fieldMinMax minmaxdomain write:
    min(p) = -6.098103 in cell 189 at location (56.614857 11.932551 0)
    max(p) = 1.7216983 in cell 1 at location (52.87257 -4.1748977 0)
    min(U) = (-0.041412762 -0.0076186557 -5.2147286e-19) in cell 87 at location (37.871504 1.0835614 0)
    max(U) = (1.2063037 3.2395797 8.4454419e-19) in cell 189 at location (56.614857 11.932551 0)

Time = 49.85

Courant Number mean: 0.097048929 max: 0.51731136
smoothSolver:  Solving for Ux, Initial residual = 9.0894468e-05, Final residual = 3.1764244e-10, No Iterations 2
smoothSolver:  Solving for Uy, Initial residual = 6.4290561e-05, Final residual = 2.9584191e-10, No Iterations 2
DICPCG:  Solving for p, Initial residual = 0.00024757811, Final residual = 2.2608219e-06, No Iterations 15
DICPCG:  Solving for p, Initial residual = 3.6253222e-05, Final residual = 9.1331236e-07, No Iterations 8
DICPCG:  Solving for p, Initial residual = 4.4607464e-06, Final residual = 9.2472822e-07, No Iterations 1
time step continuity errors : sum local = 3.3851879e-10, global = -2.3185795e-11, cumulative = 9.8107081e-08
DICPCG:  Solving for p, Initial residual = 7.6301187e-06, Final residual = 8.0673386e-07, No Iterations 10
DICPCG:  Solving for p, Initial residual = 2.8826976e-06, Final residual = 5.5426777e-07, No Iterations 1
DICPCG:  Solving for p, Initial residual = 6.6281234e-07, Final residual = 6.6281234e-07, No Iterations 0
time step continuity errors : sum local = 2.4263821e-10, global = -5.5476063e-12, cumulative = 9.8101533e-08
ExecutionTime = 31.28 s  ClockTime = 36 s

fieldMinMax minmaxdomain write:
    min(p) = -6.0976563 in cell 189 at location (56.614857 11.932551 0)
    max(p) = 1.72166 in cell 1 at location (52.87257 -4.1748977 0)
    min(U) = (-0.042389344 -0.007616512 -5.2140047e-19) in cell 87 at location (37.871504 1.0835614 0)
    max(U) = (1.2062616 3.2395024 8.444705e-19) in cell 189 at location (56.614857 11.932551 0)

Time = 49.9

Courant Number mean: 0.097048429 max: 0.51730268
smoothSolver:  Solving for Ux, Initial residual = 9.0701463e-05, Final residual = 3.1621832e-10, No Iterations 2
smoothSolver:  Solving for Uy, Initial residual = 6.4141107e-05, Final residual = 2.9512351e-10, No Iterations 2
DICPCG:  Solving for p, Initial residual = 0.00023945774, Final residual = 2.1553319e-06, No Iterations 17
DICPCG:  Solving for p, Initial residual = 3.6196052e-05, Final residual = 8.6602143e-07, No Iterations 10
DICPCG:  Solving for p, Initial residual = 4.2280528e-06, Final residual = 8.5156586e-07, No Iterations 1
time step continuity errors : sum local = 3.1174638e-10, global = -2.5166417e-11, cumulative = 9.8076367e-08
DICPCG:  Solving for p, Initial residual = 7.7055262e-06, Final residual = 9.5746405e-07, No Iterations 6
DICPCG:  Solving for p, Initial residual = 2.8135469e-06, Final residual = 7.3786448e-07, No Iterations 1
DICPCG:  Solving for p, Initial residual = 8.2427688e-07, Final residual = 8.2427688e-07, No Iterations 0
time step continuity errors : sum local = 3.0175593e-10, global = -1.4741641e-11, cumulative = 9.8061625e-08
ExecutionTime = 31.31 s  ClockTime = 36 s

fieldMinMax minmaxdomain write:
    min(p) = -6.0972079 in cell 189 at location (56.614857 11.932551 0)
    max(p) = 1.7216783 in cell 1 at location (52.87257 -4.1748977 0)
    min(U) = (-0.043368013 -0.007612288 -5.2129181e-19) in cell 87 at location (37.871504 1.0835614 0)
    max(U) = (1.2062195 3.2394253 8.4439598e-19) in cell 189 at location (56.614857 11.932551 0)

Time = 49.95

Courant Number mean: 0.097047949 max: 0.51729401
smoothSolver:  Solving for Ux, Initial residual = 9.0572965e-05, Final residual = 3.1546809e-10, No Iterations 2
smoothSolver:  Solving for Uy, Initial residual = 6.4014541e-05, Final residual = 2.945816e-10, No Iterations 2
DICPCG:  Solving for p, Initial residual = 0.00024283054, Final residual = 2.3452041e-06, No Iterations 16
DICPCG:  Solving for p, Initial residual = 3.6377754e-05, Final residual = 9.3659772e-07, No Iterations 8
DICPCG:  Solving for p, Initial residual = 4.5329601e-06, Final residual = 9.0420782e-07, No Iterations 1
time step continuity errors : sum local = 3.3102828e-10, global = -7.5157575e-12, cumulative = 9.8054109e-08
DICPCG:  Solving for p, Initial residual = 8.1479828e-06, Final residual = 8.9624559e-07, No Iterations 8
DICPCG:  Solving for p, Initial residual = 3.006159e-06, Final residual = 6.6157569e-07, No Iterations 1
DICPCG:  Solving for p, Initial residual = 7.5955739e-07, Final residual = 7.5955739e-07, No Iterations 0
time step continuity errors : sum local = 2.7807185e-10, global = -2.5751918e-12, cumulative = 9.8051534e-08
ExecutionTime = 31.33 s  ClockTime = 36 s

fieldMinMax minmaxdomain write:
    min(p) = -6.0967734 in cell 189 at location (56.614857 11.932551 0)
    max(p) = 1.721681 in cell 1 at location (52.87257 -4.1748977 0)
    min(U) = (-0.044349065 -0.0076059877 -5.2118577e-19) in cell 87 at location (37.871504 1.0835614 0)
    max(U) = (1.2061777 3.2393485 8.4432479e-19) in cell 189 at location (56.614857 11.932551 0)

Time = 50

Courant Number mean: 0.097047466 max: 0.51728539
smoothSolver:  Solving for Ux, Initial residual = 9.0470589e-05, Final residual = 3.14266e-10, No Iterations 2
smoothSolver:  Solving for Uy, Initial residual = 6.3886313e-05, Final residual = 2.9378123e-10, No Iterations 2
DICPCG:  Solving for p, Initial residual = 0.00021976335, Final residual = 1.8606104e-06, No Iterations 18
DICPCG:  Solving for p, Initial residual = 3.4658895e-05, Final residual = 8.0455621e-07, No Iterations 10
DICPCG:  Solving for p, Initial residual = 3.9340839e-06, Final residual = 8.287984e-07, No Iterations 1
time step continuity errors : sum local = 3.0344128e-10, global = 1.2204254e-11, cumulative = 9.8063738e-08
DICPCG:  Solving for p, Initial residual = 7.091476e-06, Final residual = 9.7447503e-07, No Iterations 6
DICPCG:  Solving for p, Initial residual = 2.7841552e-06, Final residual = 6.9733662e-07, No Iterations 1
DICPCG:  Solving for p, Initial residual = 7.8911453e-07, Final residual = 7.8911453e-07, No Iterations 0
time step continuity errors : sum local = 2.8891193e-10, global = 1.6171933e-11, cumulative = 9.807991e-08
ExecutionTime = 31.37 s  ClockTime = 36 s

fieldMinMax minmaxdomain write:
    min(p) = -6.0963414 in cell 189 at location (56.614857 11.932551 0)
    max(p) = 1.7216773 in cell 1 at location (52.87257 -4.1748977 0)
    min(U) = (-0.04533259 -0.0075977056 -5.2105484e-19) in cell 87 at location (37.871504 1.0835614 0)
    max(U) = (1.2061359 3.2392719 8.442539e-19) in cell 189 at location (56.614857 11.932551 0)

End

