/*---------------------------------------------------------------------------*\
  =========                 |
  \\      /  F ield         | OpenFOAM: The Open Source CFD Toolbox
   \\    /   O peration     | Website:  https://openfoam.org
    \\  /    A nd           | Version:  7
     \\/     M anipulation  |
\*---------------------------------------------------------------------------*/
Build  : 7-7dc73e32f723
Exec   : blockMesh
Date   : Nov 30 2020
Time   : 17:28:26
Host   : "DESKTOP-VSJ4QNK"
PID    : 40472
I/O    : uncollated
Case   : /home/anoldfriend/OpenFOAM/anoldfriend-7/applications/test/singlePhaseDBS/cavity
nProcs : 1
sigFpe : Enabling floating point exception trapping (FOAM_SIGFPE).
fileModificationChecking : Monitoring run-time modified files using timeStampMaster (fileModificationSkew 10)
allowSystemOperations : Allowing user-supplied system call operations

// * * * * * * * * * * * * * * * * * * * * * * * * * * * * * * * * * * * * * //
Create time

Creating block mesh from
    "/home/anoldfriend/OpenFOAM/anoldfriend-7/applications/test/singlePhaseDBS/cavity/system/blockMeshDict"
Creating block edges
No non-planar block faces defined
Creating topology blocks
Creating topology patches

Creating block mesh topology

Check topology

	Basic statistics
		Number of internal faces : 0
		Number of boundary faces : 6
		Number of defined boundary faces : 6
		Number of undefined boundary faces : 0
	Checking patch -> block consistency

Creating block offsets
Creating merge list .

Creating polyMesh from blockMesh
Creating patches
Creating cells
Creating points with scale 0.1
    Block 0 cell size :
        i : 0.001 .. 0.001
        j : 0.001 .. 0.001
        k : 0.01

Writing polyMesh
----------------
Mesh Information
----------------
  boundingBox: (0 0 0) (0.1 0.1 0.01)
  nPoints: 20402
  nCells: 10000
  nFaces: 40200
  nInternalFaces: 19800
----------------
Patches
----------------
  patch 0 (start: 19800 size: 100) name: left
  patch 1 (start: 19900 size: 100) name: right
  patch 2 (start: 20000 size: 100) name: bottom
  patch 3 (start: 20100 size: 100) name: movingTop
  patch 4 (start: 20200 size: 20000) name: frontAndBack

End

/*---------------------------------------------------------------------------*\
  =========                 |
  \\      /  F ield         | OpenFOAM: The Open Source CFD Toolbox
   \\    /   O peration     | Website:  https://openfoam.org
    \\  /    A nd           | Version:  7
     \\/     M anipulation  |
\*---------------------------------------------------------------------------*/
Build  : 7-7dc73e32f723
Exec   : checkMesh
Date   : Nov 30 2020
Time   : 17:28:27
Host   : "DESKTOP-VSJ4QNK"
PID    : 40474
I/O    : uncollated
Case   : /home/anoldfriend/OpenFOAM/anoldfriend-7/applications/test/singlePhaseDBS/cavity
nProcs : 1
sigFpe : Enabling floating point exception trapping (FOAM_SIGFPE).
fileModificationChecking : Monitoring run-time modified files using timeStampMaster (fileModificationSkew 10)
allowSystemOperations : Allowing user-supplied system call operations

// * * * * * * * * * * * * * * * * * * * * * * * * * * * * * * * * * * * * * //
Create time

Create polyMesh for time = 0

Time = 0

Mesh stats
    points:           20402
    internal points:  0
    faces:            40200
    internal faces:   19800
    cells:            10000
    faces per cell:   6
    boundary patches: 5
    point zones:      0
    face zones:       0
    cell zones:       0

Overall number of cells of each type:
    hexahedra:     10000
    prisms:        0
    wedges:        0
    pyramids:      0
    tet wedges:    0
    tetrahedra:    0
    polyhedra:     0

Checking topology...
    Boundary definition OK.
    Cell to face addressing OK.
    Point usage OK.
    Upper triangular ordering OK.
    Face vertices OK.
    Number of regions: 1 (OK).

Checking patch topology for multiply connected surfaces...
    Patch               Faces    Points   Surface topology                  
    left                100      202      ok (non-closed singly connected)  
    right               100      202      ok (non-closed singly connected)  
    bottom              100      202      ok (non-closed singly connected)  
    movingTop           100      202      ok (non-closed singly connected)  
    frontAndBack        20000    20402    ok (non-closed singly connected)  

Checking geometry...
    Overall domain bounding box (0 0 0) (0.1 0.1 0.01)
    Mesh has 2 geometric (non-empty/wedge) directions (1 1 0)
    Mesh has 2 solution (non-empty) directions (1 1 0)
    All edges aligned with or perpendicular to non-empty directions.
    Boundary openness (1.12938e-17 1.12938e-17 1.27761e-17) OK.
    Max cell openness = 1.05879e-16 OK.
    Max aspect ratio = 1 OK.
    Minimum face area = 1e-06. Maximum face area = 1e-05.  Face area magnitudes OK.
    Min volume = 1e-08. Max volume = 1e-08.  Total volume = 0.0001.  Cell volumes OK.
    Mesh non-orthogonality Max: 0 average: 0
    Non-orthogonality check OK.
    Face pyramids OK.
    Max skewness = 8.32673e-14 OK.
    Coupled point location match (average 0) OK.

Mesh OK.

End

/*---------------------------------------------------------------------------*\
  =========                 |
  \\      /  F ield         | OpenFOAM: The Open Source CFD Toolbox
   \\    /   O peration     | Website:  https://openfoam.org
    \\  /    A nd           | Version:  7
     \\/     M anipulation  |
\*---------------------------------------------------------------------------*/
Build  : 7-7dc73e32f723
Exec   : /home/anoldfriend/OpenFOAM/anoldfriend-7/platforms/linux64GccDPInt32Opt/bin/icoDBSFoam
Date   : Nov 30 2020
Time   : 17:28:27
Host   : "DESKTOP-VSJ4QNK"
PID    : 40476
I/O    : uncollated
Case   : /home/anoldfriend/OpenFOAM/anoldfriend-7/applications/test/singlePhaseDBS/cavity
nProcs : 1
sigFpe : Enabling floating point exception trapping (FOAM_SIGFPE).
fileModificationChecking : Monitoring run-time modified files using timeStampMaster (fileModificationSkew 10)
allowSystemOperations : Allowing user-supplied system call operations

// * * * * * * * * * * * * * * * * * * * * * * * * * * * * * * * * * * * * * //
Create time

Create mesh for time = 0

Reading transportProperties

Reading field p

Reading field U


Reading field porosity
create permeability filed


Reading g
Reading/calculating face flux field phi


Starting time loop

Reading set description:
    line

Time = 0.001

Courant Number mean: 0 max: 0
smoothSolver:  Solving for Ux, Initial residual = 1, Final residual = 9.59632e-07, No Iterations 103
smoothSolver:  Solving for Uy, Initial residual = 0, Final residual = 0, No Iterations 0
DICPCG:  Solving for p, Initial residual = 1, Final residual = 0.0485548, No Iterations 120
time step continuity errors : sum local = 3.03391e-05, global = -1.22319e-21, cumulative = -1.22319e-21
DICPCG:  Solving for p, Initial residual = 0.682353, Final residual = 9.99532e-07, No Iterations 174
time step continuity errors : sum local = 9.40313e-10, global = 2.05445e-20, cumulative = 1.93213e-20
ExecutionTime = 0.41 s  ClockTime = 0 s

Time = 0.002

Courant Number mean: 0.0587988 max: 0.810024
smoothSolver:  Solving for Ux, Initial residual = 0.119335, Final residual = 9.1414e-07, No Iterations 108
smoothSolver:  Solving for Uy, Initial residual = 0.387195, Final residual = 9.21e-07, No Iterations 120
DICPCG:  Solving for p, Initial residual = 0.764537, Final residual = 0.0374675, No Iterations 60
time step continuity errors : sum local = 4.87007e-05, global = 4.81977e-20, cumulative = 6.7519e-20
DICPCG:  Solving for p, Initial residual = 0.70647, Final residual = 8.4625e-07, No Iterations 173
time step continuity errors : sum local = 1.00218e-09, global = 4.63052e-20, cumulative = 1.13824e-19
ExecutionTime = 0.55 s  ClockTime = 1 s

Time = 0.003

Courant Number mean: 0.089031 max: 0.927303
smoothSolver:  Solving for Ux, Initial residual = 0.0532959, Final residual = 9.28423e-07, No Iterations 94
smoothSolver:  Solving for Uy, Initial residual = 0.206256, Final residual = 9.98378e-07, No Iterations 111
DICPCG:  Solving for p, Initial residual = 0.7977, Final residual = 0.0397482, No Iterations 115
time step continuity errors : sum local = 4.93089e-05, global = -1.2904e-19, cumulative = -1.5216e-20
DICPCG:  Solving for p, Initial residual = 0.53334, Final residual = 9.31181e-07, No Iterations 166
time step continuity errors : sum local = 1.6243e-09, global = 6.78063e-20, cumulative = 5.25904e-20
ExecutionTime = 0.7 s  ClockTime = 1 s

Time = 0.004

Courant Number mean: 0.105591 max: 0.92906
smoothSolver:  Solving for Ux, Initial residual = 0.036873, Final residual = 9.59952e-07, No Iterations 95
smoothSolver:  Solving for Uy, Initial residual = 0.134859, Final residual = 9.06032e-07, No Iterations 108
DICPCG:  Solving for p, Initial residual = 0.696973, Final residual = 0.0297392, No Iterations 110
time step continuity errors : sum local = 3.2516e-05, global = 7.49074e-20, cumulative = 1.27498e-19
DICPCG:  Solving for p, Initial residual = 0.534232, Final residual = 9.19167e-07, No Iterations 169
time step continuity errors : sum local = 1.22414e-09, global = -6.40357e-20, cumulative = 6.34621e-20
ExecutionTime = 0.85 s  ClockTime = 1 s

Time = 0.005

Courant Number mean: 0.118488 max: 0.942425
smoothSolver:  Solving for Ux, Initial residual = 0.0237356, Final residual = 9.98899e-07, No Iterations 89
smoothSolver:  Solving for Uy, Initial residual = 0.0841516, Final residual = 9.52e-07, No Iterations 106
DICPCG:  Solving for p, Initial residual = 0.636058, Final residual = 0.0314033, No Iterations 102
time step continuity errors : sum local = 2.49943e-05, global = -1.48496e-19, cumulative = -8.50344e-20
DICPCG:  Solving for p, Initial residual = 0.511407, Final residual = 7.81404e-07, No Iterations 165
time step continuity errors : sum local = 7.23312e-10, global = -1.39464e-19, cumulative = -2.24498e-19
ExecutionTime = 0.98 s  ClockTime = 1 s

Time = 0.006

Courant Number mean: 0.128665 max: 0.945776
smoothSolver:  Solving for Ux, Initial residual = 0.0176221, Final residual = 9.02349e-07, No Iterations 91
smoothSolver:  Solving for Uy, Initial residual = 0.0526619, Final residual = 9.62074e-07, No Iterations 101
DICPCG:  Solving for p, Initial residual = 0.50298, Final residual = 0.0230517, No Iterations 102
time step continuity errors : sum local = 1.5505e-05, global = 9.66519e-20, cumulative = -1.27846e-19
DICPCG:  Solving for p, Initial residual = 0.413921, Final residual = 8.85406e-07, No Iterations 165
time step continuity errors : sum local = 6.67674e-10, global = -1.20619e-19, cumulative = -2.48465e-19
ExecutionTime = 1.14 s  ClockTime = 1 s

Time = 0.007

Courant Number mean: 0.137217 max: 0.949371
smoothSolver:  Solving for Ux, Initial residual = 0.0125244, Final residual = 9.71036e-07, No Iterations 86
smoothSolver:  Solving for Uy, Initial residual = 0.0421695, Final residual = 9.1623e-07, No Iterations 102
DICPCG:  Solving for p, Initial residual = 0.412201, Final residual = 0.0204165, No Iterations 93
time step continuity errors : sum local = 1.15788e-05, global = 1.40492e-19, cumulative = -1.07973e-19
DICPCG:  Solving for p, Initial residual = 0.360517, Final residual = 9.21746e-07, No Iterations 163
time step continuity errors : sum local = 5.54854e-10, global = 2.64658e-20, cumulative = -8.15067e-20
ExecutionTime = 1.28 s  ClockTime = 1 s

Time = 0.008

Courant Number mean: 0.144518 max: 0.95318
smoothSolver:  Solving for Ux, Initial residual = 0.0101451, Final residual = 9.78508e-07, No Iterations 86
smoothSolver:  Solving for Uy, Initial residual = 0.0291339, Final residual = 9.64147e-07, No Iterations 98
DICPCG:  Solving for p, Initial residual = 0.31316, Final residual = 0.0154772, No Iterations 101
time step continuity errors : sum local = 7.73088e-06, global = -8.97574e-20, cumulative = -1.71264e-19
DICPCG:  Solving for p, Initial residual = 0.279533, Final residual = 8.6289e-07, No Iterations 163
time step continuity errors : sum local = 4.48669e-10, global = -1.1414e-19, cumulative = -2.85404e-19
ExecutionTime = 1.42 s  ClockTime = 1 s

Time = 0.009

Courant Number mean: 0.15085 max: 0.95444
smoothSolver:  Solving for Ux, Initial residual = 0.00797927, Final residual = 9.13786e-07, No Iterations 84
smoothSolver:  Solving for Uy, Initial residual = 0.0272793, Final residual = 9.48078e-07, No Iterations 99
DICPCG:  Solving for p, Initial residual = 0.237779, Final residual = 0.0114249, No Iterations 108
time step continuity errors : sum local = 5.2474e-06, global = 3.23448e-20, cumulative = -2.5306e-19
DICPCG:  Solving for p, Initial residual = 0.21371, Final residual = 8.65912e-07, No Iterations 162
time step continuity errors : sum local = 4.18491e-10, global = -1.11271e-19, cumulative = -3.6433e-19
ExecutionTime = 1.56 s  ClockTime = 2 s

Time = 0.01

Courant Number mean: 0.156469 max: 0.957211
smoothSolver:  Solving for Ux, Initial residual = 0.00711223, Final residual = 9.50435e-07, No Iterations 84
smoothSolver:  Solving for Uy, Initial residual = 0.0202398, Final residual = 9.21657e-07, No Iterations 96
DICPCG:  Solving for p, Initial residual = 0.159369, Final residual = 0.00776274, No Iterations 96
time step continuity errors : sum local = 3.25179e-06, global = 1.26561e-19, cumulative = -2.37769e-19
DICPCG:  Solving for p, Initial residual = 0.145623, Final residual = 8.76003e-07, No Iterations 162
time step continuity errors : sum local = 3.74172e-10, global = -1.79062e-20, cumulative = -2.55675e-19
ExecutionTime = 1.69 s  ClockTime = 2 s

Time = 0.011

Courant Number mean: 0.161428 max: 0.958109
smoothSolver:  Solving for Ux, Initial residual = 0.00603198, Final residual = 9.36662e-07, No Iterations 83
smoothSolver:  Solving for Uy, Initial residual = 0.017177, Final residual = 9.58545e-07, No Iterations 95
DICPCG:  Solving for p, Initial residual = 0.107357, Final residual = 0.00503367, No Iterations 53
time step continuity errors : sum local = 2.33928e-06, global = 1.78863e-19, cumulative = -7.68121e-20
DICPCG:  Solving for p, Initial residual = 0.100345, Final residual = 8.13665e-07, No Iterations 160
time step continuity errors : sum local = 3.24378e-10, global = -6.59096e-20, cumulative = -1.42722e-19
ExecutionTime = 1.82 s  ClockTime = 2 s

Time = 0.012

Courant Number mean: 0.165885 max: 0.959598
smoothSolver:  Solving for Ux, Initial residual = 0.00617601, Final residual = 9.92452e-07, No Iterations 83
smoothSolver:  Solving for Uy, Initial residual = 0.0154684, Final residual = 9.0996e-07, No Iterations 94
DICPCG:  Solving for p, Initial residual = 0.100938, Final residual = 0.00461218, No Iterations 114
time step continuity errors : sum local = 1.84623e-06, global = 1.18319e-19, cumulative = -2.44028e-20
DICPCG:  Solving for p, Initial residual = 0.0863846, Final residual = 9.63102e-07, No Iterations 161
time step continuity errors : sum local = 4.29286e-10, global = -8.08631e-20, cumulative = -1.05266e-19
ExecutionTime = 1.96 s  ClockTime = 2 s

Time = 0.013

Courant Number mean: 0.169913 max: 0.960599
smoothSolver:  Solving for Ux, Initial residual = 0.00496543, Final residual = 9.12728e-07, No Iterations 81
smoothSolver:  Solving for Uy, Initial residual = 0.0148937, Final residual = 9.83941e-07, No Iterations 93
DICPCG:  Solving for p, Initial residual = 0.0750151, Final residual = 0.00321943, No Iterations 97
time step continuity errors : sum local = 1.25817e-06, global = -9.42928e-20, cumulative = -1.99559e-19
DICPCG:  Solving for p, Initial residual = 0.0668142, Final residual = 8.14802e-07, No Iterations 160
time step continuity errors : sum local = 3.31157e-10, global = 2.08816e-19, cumulative = 9.25696e-21
ExecutionTime = 2.1 s  ClockTime = 2 s

Time = 0.014

Courant Number mean: 0.173569 max: 0.961479
smoothSolver:  Solving for Ux, Initial residual = 0.00423088, Final residual = 9.46193e-07, No Iterations 80
smoothSolver:  Solving for Uy, Initial residual = 0.0120365, Final residual = 9.13558e-07, No Iterations 92
DICPCG:  Solving for p, Initial residual = 0.0518056, Final residual = 0.00233091, No Iterations 111
time step continuity errors : sum local = 8.87057e-07, global = -3.3918e-20, cumulative = -2.46611e-20
DICPCG:  Solving for p, Initial residual = 0.0484569, Final residual = 9.22307e-07, No Iterations 158
time step continuity errors : sum local = 3.54691e-10, global = 2.48479e-20, cumulative = 1.8681e-22
ExecutionTime = 2.23 s  ClockTime = 2 s

Time = 0.015

Courant Number mean: 0.176888 max: 0.962222
smoothSolver:  Solving for Ux, Initial residual = 0.00383248, Final residual = 9.82401e-07, No Iterations 79
smoothSolver:  Solving for Uy, Initial residual = 0.010966, Final residual = 9.6638e-07, No Iterations 91
DICPCG:  Solving for p, Initial residual = 0.0392216, Final residual = 0.00187451, No Iterations 111
time step continuity errors : sum local = 7.02497e-07, global = -5.61086e-20, cumulative = -5.59218e-20
DICPCG:  Solving for p, Initial residual = 0.0365444, Final residual = 9.80503e-07, No Iterations 158
time step continuity errors : sum local = 3.71401e-10, global = -1.06071e-19, cumulative = -1.61993e-19
ExecutionTime = 2.37 s  ClockTime = 2 s

Time = 0.016

Courant Number mean: 0.179949 max: 0.96301
smoothSolver:  Solving for Ux, Initial residual = 0.00346634, Final residual = 9.13332e-07, No Iterations 79
smoothSolver:  Solving for Uy, Initial residual = 0.00962955, Final residual = 9.49695e-07, No Iterations 90
DICPCG:  Solving for p, Initial residual = 0.0281809, Final residual = 0.00120244, No Iterations 113
time step continuity errors : sum local = 4.46516e-07, global = 8.39459e-20, cumulative = -7.80467e-20
DICPCG:  Solving for p, Initial residual = 0.0263125, Final residual = 7.08821e-07, No Iterations 157
time step continuity errors : sum local = 2.64477e-10, global = -1.16247e-19, cumulative = -1.94294e-19
ExecutionTime = 2.51 s  ClockTime = 3 s

Time = 0.017

Courant Number mean: 0.182754 max: 0.963645
smoothSolver:  Solving for Ux, Initial residual = 0.00312646, Final residual = 9.31146e-07, No Iterations 78
smoothSolver:  Solving for Uy, Initial residual = 0.00875072, Final residual = 9.74887e-07, No Iterations 89
DICPCG:  Solving for p, Initial residual = 0.0176952, Final residual = 0.000773077, No Iterations 109
time step continuity errors : sum local = 2.84274e-07, global = -5.94417e-20, cumulative = -2.53736e-19
DICPCG:  Solving for p, Initial residual = 0.0166397, Final residual = 7.49228e-07, No Iterations 153
time step continuity errors : sum local = 2.76316e-10, global = -1.59899e-20, cumulative = -2.69725e-19
ExecutionTime = 2.64 s  ClockTime = 3 s

Time = 0.018

Courant Number mean: 0.185335 max: 0.964177
smoothSolver:  Solving for Ux, Initial residual = 0.00285982, Final residual = 9.6259e-07, No Iterations 77
smoothSolver:  Solving for Uy, Initial residual = 0.00800071, Final residual = 9.90904e-07, No Iterations 88
DICPCG:  Solving for p, Initial residual = 0.0137708, Final residual = 0.000668132, No Iterations 111
time step continuity errors : sum local = 2.45263e-07, global = -2.91723e-20, cumulative = -2.98898e-19
DICPCG:  Solving for p, Initial residual = 0.0131381, Final residual = 7.10012e-07, No Iterations 156
time step continuity errors : sum local = 2.60329e-10, global = -7.22363e-20, cumulative = -3.71134e-19
ExecutionTime = 2.78 s  ClockTime = 3 s

Time = 0.019

Courant Number mean: 0.187723 max: 0.964712
smoothSolver:  Solving for Ux, Initial residual = 0.00262537, Final residual = 9.91735e-07, No Iterations 76
smoothSolver:  Solving for Uy, Initial residual = 0.00734216, Final residual = 9.15777e-07, No Iterations 88
DICPCG:  Solving for p, Initial residual = 0.0113354, Final residual = 0.000493478, No Iterations 56
time step continuity errors : sum local = 2.14011e-07, global = 1.17194e-19, cumulative = -2.53941e-19
DICPCG:  Solving for p, Initial residual = 0.0107612, Final residual = 8.05438e-07, No Iterations 153
time step continuity errors : sum local = 2.94759e-10, global = 1.79487e-19, cumulative = -7.44538e-20
ExecutionTime = 2.91 s  ClockTime = 3 s

Time = 0.02

Courant Number mean: 0.189938 max: 0.965136
smoothSolver:  Solving for Ux, Initial residual = 0.00250608, Final residual = 9.55287e-07, No Iterations 76
smoothSolver:  Solving for Uy, Initial residual = 0.00671924, Final residual = 9.15705e-07, No Iterations 87
DICPCG:  Solving for p, Initial residual = 0.0128223, Final residual = 0.000606078, No Iterations 114
time step continuity errors : sum local = 2.22073e-07, global = -7.95611e-20, cumulative = -1.54015e-19
DICPCG:  Solving for p, Initial residual = 0.0121439, Final residual = 9.12466e-07, No Iterations 156
time step continuity errors : sum local = 3.38645e-10, global = 6.51127e-20, cumulative = -8.89022e-20
ExecutionTime = 3.05 s  ClockTime = 3 s

Time = 0.021

Courant Number mean: 0.191992 max: 0.96556
smoothSolver:  Solving for Ux, Initial residual = 0.00225348, Final residual = 9.4785e-07, No Iterations 75
smoothSolver:  Solving for Uy, Initial residual = 0.00641813, Final residual = 9.70593e-07, No Iterations 86
DICPCG:  Solving for p, Initial residual = 0.0113563, Final residual = 0.0005628, No Iterations 109
time step continuity errors : sum local = 2.05973e-07, global = 4.72294e-20, cumulative = -4.16728e-20
DICPCG:  Solving for p, Initial residual = 0.0108528, Final residual = 9.41065e-07, No Iterations 151
time step continuity errors : sum local = 3.45942e-10, global = -3.42526e-20, cumulative = -7.59253e-20
ExecutionTime = 3.18 s  ClockTime = 3 s

Time = 0.022

Courant Number mean: 0.193899 max: 0.965913
smoothSolver:  Solving for Ux, Initial residual = 0.00208487, Final residual = 9.93429e-07, No Iterations 74
smoothSolver:  Solving for Uy, Initial residual = 0.00583996, Final residual = 9.87931e-07, No Iterations 85
DICPCG:  Solving for p, Initial residual = 0.00964053, Final residual = 0.0004684, No Iterations 110
time step continuity errors : sum local = 1.71559e-07, global = -1.28209e-19, cumulative = -2.04134e-19
DICPCG:  Solving for p, Initial residual = 0.00911654, Final residual = 8.0411e-07, No Iterations 152
time step continuity errors : sum local = 2.94461e-10, global = 9.56915e-20, cumulative = -1.08443e-19
ExecutionTime = 3.31 s  ClockTime = 3 s

Time = 0.023

Courant Number mean: 0.19567 max: 0.96625
smoothSolver:  Solving for Ux, Initial residual = 0.00192376, Final residual = 9.25287e-07, No Iterations 74
smoothSolver:  Solving for Uy, Initial residual = 0.00541874, Final residual = 9.22819e-07, No Iterations 85
DICPCG:  Solving for p, Initial residual = 0.00829332, Final residual = 0.000327168, No Iterations 113
time step continuity errors : sum local = 1.19589e-07, global = -4.63686e-21, cumulative = -1.1308e-19
DICPCG:  Solving for p, Initial residual = 0.00791886, Final residual = 8.75175e-07, No Iterations 150
time step continuity errors : sum local = 3.20389e-10, global = -8.44632e-20, cumulative = -1.97543e-19
ExecutionTime = 3.45 s  ClockTime = 3 s

Time = 0.024

Courant Number mean: 0.197327 max: 0.966545
smoothSolver:  Solving for Ux, Initial residual = 0.00178664, Final residual = 9.61921e-07, No Iterations 73
smoothSolver:  Solving for Uy, Initial residual = 0.00502767, Final residual = 9.49205e-07, No Iterations 84
DICPCG:  Solving for p, Initial residual = 0.00568499, Final residual = 0.000258302, No Iterations 108
time step continuity errors : sum local = 9.43192e-08, global = -1.84854e-20, cumulative = -2.16028e-19
DICPCG:  Solving for p, Initial residual = 0.00541045, Final residual = 9.23496e-07, No Iterations 146
time step continuity errors : sum local = 3.36699e-10, global = 1.08938e-19, cumulative = -1.0709e-19
ExecutionTime = 3.58 s  ClockTime = 4 s

Time = 0.025

Courant Number mean: 0.198874 max: 0.966818
smoothSolver:  Solving for Ux, Initial residual = 0.00166153, Final residual = 9.97738e-07, No Iterations 72
smoothSolver:  Solving for Uy, Initial residual = 0.00468376, Final residual = 9.83026e-07, No Iterations 83
DICPCG:  Solving for p, Initial residual = 0.00542212, Final residual = 0.000253686, No Iterations 55
time step continuity errors : sum local = 9.77023e-08, global = -1.45373e-19, cumulative = -2.52464e-19
DICPCG:  Solving for p, Initial residual = 0.0051777, Final residual = 9.91471e-07, No Iterations 143
time step continuity errors : sum local = 3.61226e-10, global = -1.94149e-19, cumulative = -4.46613e-19
ExecutionTime = 3.7 s  ClockTime = 4 s

Time = 0.026

Courant Number mean: 0.200322 max: 0.967066
smoothSolver:  Solving for Ux, Initial residual = 0.00156069, Final residual = 9.421e-07, No Iterations 72
smoothSolver:  Solving for Uy, Initial residual = 0.00435939, Final residual = 9.1416e-07, No Iterations 83
DICPCG:  Solving for p, Initial residual = 0.00513227, Final residual = 0.000247387, No Iterations 108
time step continuity errors : sum local = 9.01669e-08, global = -2.41413e-20, cumulative = -4.70754e-19
DICPCG:  Solving for p, Initial residual = 0.00487884, Final residual = 8.8368e-07, No Iterations 148
time step continuity errors : sum local = 3.23047e-10, global = 1.6805e-19, cumulative = -3.02704e-19
ExecutionTime = 3.82 s  ClockTime = 4 s

Time = 0.027

Courant Number mean: 0.201675 max: 0.967294
smoothSolver:  Solving for Ux, Initial residual = 0.00144708, Final residual = 9.72212e-07, No Iterations 71
smoothSolver:  Solving for Uy, Initial residual = 0.00411552, Final residual = 9.55301e-07, No Iterations 82
DICPCG:  Solving for p, Initial residual = 0.00510051, Final residual = 0.000216078, No Iterations 56
time step continuity errors : sum local = 9.80293e-08, global = -1.57882e-19, cumulative = -4.60586e-19
DICPCG:  Solving for p, Initial residual = 0.0048711, Final residual = 7.69616e-07, No Iterations 148
time step continuity errors : sum local = 2.80682e-10, global = 1.77839e-20, cumulative = -4.42802e-19
ExecutionTime = 3.94 s  ClockTime = 4 s

Time = 0.028

Courant Number mean: 0.202942 max: 0.967502
smoothSolver:  Solving for Ux, Initial residual = 0.00140619, Final residual = 9.44607e-07, No Iterations 71
smoothSolver:  Solving for Uy, Initial residual = 0.00378405, Final residual = 9.63541e-07, No Iterations 81
DICPCG:  Solving for p, Initial residual = 0.00620682, Final residual = 0.00025834, No Iterations 115
time step continuity errors : sum local = 9.42937e-08, global = -1.43712e-19, cumulative = -5.86514e-19
DICPCG:  Solving for p, Initial residual = 0.00589146, Final residual = 8.66821e-07, No Iterations 152
time step continuity errors : sum local = 3.18724e-10, global = -1.11856e-20, cumulative = -5.977e-19
ExecutionTime = 4.09 s  ClockTime = 4 s

Time = 0.029

Courant Number mean: 0.204128 max: 0.967697
smoothSolver:  Solving for Ux, Initial residual = 0.00127686, Final residual = 9.45745e-07, No Iterations 70
smoothSolver:  Solving for Uy, Initial residual = 0.00367033, Final residual = 9.33695e-07, No Iterations 81
DICPCG:  Solving for p, Initial residual = 0.00566074, Final residual = 0.00025623, No Iterations 111
time step continuity errors : sum local = 9.34862e-08, global = 1.52806e-19, cumulative = -4.44894e-19
DICPCG:  Solving for p, Initial residual = 0.00542391, Final residual = 8.5707e-07, No Iterations 149
time step continuity errors : sum local = 3.13344e-10, global = 3.98843e-20, cumulative = -4.0501e-19
ExecutionTime = 4.21 s  ClockTime = 4 s

Time = 0.03

Courant Number mean: 0.20524 max: 0.967868
smoothSolver:  Solving for Ux, Initial residual = 0.00119516, Final residual = 9.96928e-07, No Iterations 69
smoothSolver:  Solving for Uy, Initial residual = 0.00337465, Final residual = 9.58919e-07, No Iterations 80
DICPCG:  Solving for p, Initial residual = 0.00471202, Final residual = 0.000233509, No Iterations 114
time step continuity errors : sum local = 8.52228e-08, global = 9.57253e-21, cumulative = -3.95437e-19
DICPCG:  Solving for p, Initial residual = 0.00449208, Final residual = 9.30339e-07, No Iterations 148
time step continuity errors : sum local = 3.39346e-10, global = 8.53936e-20, cumulative = -3.10044e-19
ExecutionTime = 4.35 s  ClockTime = 4 s

Time = 0.031

Courant Number mean: 0.206284 max: 0.968031
smoothSolver:  Solving for Ux, Initial residual = 0.00111555, Final residual = 9.35108e-07, No Iterations 69
smoothSolver:  Solving for Uy, Initial residual = 0.00316593, Final residual = 9.04673e-07, No Iterations 80
DICPCG:  Solving for p, Initial residual = 0.00403074, Final residual = 0.000165204, No Iterations 108
time step continuity errors : sum local = 6.03104e-08, global = 2.1299e-19, cumulative = -9.70539e-20
DICPCG:  Solving for p, Initial residual = 0.00384414, Final residual = 8.46274e-07, No Iterations 139
time step continuity errors : sum local = 3.08934e-10, global = -4.15048e-20, cumulative = -1.38559e-19
ExecutionTime = 4.47 s  ClockTime = 4 s

Time = 0.032

Courant Number mean: 0.207267 max: 0.968176
smoothSolver:  Solving for Ux, Initial residual = 0.00104526, Final residual = 9.77344e-07, No Iterations 68
smoothSolver:  Solving for Uy, Initial residual = 0.00296708, Final residual = 9.39716e-07, No Iterations 79
DICPCG:  Solving for p, Initial residual = 0.00314418, Final residual = 0.000126294, No Iterations 114
time step continuity errors : sum local = 4.60032e-08, global = -3.26783e-20, cumulative = -1.71237e-19
DICPCG:  Solving for p, Initial residual = 0.0029846, Final residual = 8.9277e-07, No Iterations 139
time step continuity errors : sum local = 3.25788e-10, global = 9.22452e-20, cumulative = -7.89917e-20
ExecutionTime = 4.61 s  ClockTime = 5 s

Time = 0.033

Courant Number mean: 0.208192 max: 0.968317
smoothSolver:  Solving for Ux, Initial residual = 0.000983181, Final residual = 9.21507e-07, No Iterations 68
smoothSolver:  Solving for Uy, Initial residual = 0.00278624, Final residual = 9.7979e-07, No Iterations 78
DICPCG:  Solving for p, Initial residual = 0.00291767, Final residual = 0.000140859, No Iterations 46
time step continuity errors : sum local = 5.12651e-08, global = 4.65899e-20, cumulative = -3.24018e-20
DICPCG:  Solving for p, Initial residual = 0.00279765, Final residual = 8.55757e-07, No Iterations 138
time step continuity errors : sum local = 3.11463e-10, global = -2.5589e-19, cumulative = -2.88292e-19
ExecutionTime = 4.73 s  ClockTime = 5 s

Time = 0.034

Courant Number mean: 0.209062 max: 0.96844
smoothSolver:  Solving for Ux, Initial residual = 0.000914394, Final residual = 9.54884e-07, No Iterations 67
smoothSolver:  Solving for Uy, Initial residual = 0.00264641, Final residual = 9.29443e-07, No Iterations 78
DICPCG:  Solving for p, Initial residual = 0.00277039, Final residual = 0.000132775, No Iterations 54
time step continuity errors : sum local = 6.16002e-08, global = -1.06802e-19, cumulative = -3.95094e-19
DICPCG:  Solving for p, Initial residual = 0.00266006, Final residual = 9.32195e-07, No Iterations 137
time step continuity errors : sum local = 3.40379e-10, global = -1.96239e-19, cumulative = -5.91333e-19
ExecutionTime = 4.84 s  ClockTime = 5 s

Time = 0.035

Courant Number mean: 0.209882 max: 0.968563
smoothSolver:  Solving for Ux, Initial residual = 0.000862338, Final residual = 9.84135e-07, No Iterations 66
smoothSolver:  Solving for Uy, Initial residual = 0.00253927, Final residual = 9.77431e-07, No Iterations 77
DICPCG:  Solving for p, Initial residual = 0.00388873, Final residual = 0.00016141, No Iterations 115
time step continuity errors : sum local = 5.88173e-08, global = -1.02738e-19, cumulative = -6.94071e-19
DICPCG:  Solving for p, Initial residual = 0.00370922, Final residual = 8.34779e-07, No Iterations 144
time step continuity errors : sum local = 3.05915e-10, global = -8.20573e-20, cumulative = -7.76128e-19
ExecutionTime = 4.96 s  ClockTime = 5 s

Time = 0.036

Courant Number mean: 0.210652 max: 0.968663
smoothSolver:  Solving for Ux, Initial residual = 0.000832775, Final residual = 9.56558e-07, No Iterations 66
smoothSolver:  Solving for Uy, Initial residual = 0.00234223, Final residual = 9.9601e-07, No Iterations 76
DICPCG:  Solving for p, Initial residual = 0.00323964, Final residual = 0.000150803, No Iterations 110
time step continuity errors : sum local = 5.50043e-08, global = -3.5655e-20, cumulative = -8.11783e-19
DICPCG:  Solving for p, Initial residual = 0.00309586, Final residual = 7.2552e-07, No Iterations 139
time step continuity errors : sum local = 2.64482e-10, global = -1.3064e-19, cumulative = -9.42423e-19
ExecutionTime = 5.09 s  ClockTime = 5 s

Time = 0.037

Courant Number mean: 0.211379 max: 0.968767
smoothSolver:  Solving for Ux, Initial residual = 0.000772962, Final residual = 9.91643e-07, No Iterations 65
smoothSolver:  Solving for Uy, Initial residual = 0.00220956, Final residual = 9.48802e-07, No Iterations 76
DICPCG:  Solving for p, Initial residual = 0.00314338, Final residual = 0.000141041, No Iterations 110
time step continuity errors : sum local = 5.13581e-08, global = 4.54151e-20, cumulative = -8.97008e-19
DICPCG:  Solving for p, Initial residual = 0.00296544, Final residual = 8.40342e-07, No Iterations 139
time step continuity errors : sum local = 3.06251e-10, global = 6.54193e-20, cumulative = -8.31589e-19
ExecutionTime = 5.22 s  ClockTime = 5 s

Time = 0.038

Courant Number mean: 0.212064 max: 0.968861
smoothSolver:  Solving for Ux, Initial residual = 0.000727513, Final residual = 9.3789e-07, No Iterations 65
smoothSolver:  Solving for Uy, Initial residual = 0.00207296, Final residual = 9.88131e-07, No Iterations 75
DICPCG:  Solving for p, Initial residual = 0.00276642, Final residual = 0.000123938, No Iterations 110
time step continuity errors : sum local = 4.53845e-08, global = 1.01438e-19, cumulative = -7.3015e-19
DICPCG:  Solving for p, Initial residual = 0.00261039, Final residual = 9.89431e-07, No Iterations 138
time step continuity errors : sum local = 3.60311e-10, global = -1.51285e-19, cumulative = -8.81435e-19
ExecutionTime = 5.34 s  ClockTime = 5 s

Time = 0.039

Courant Number mean: 0.212709 max: 0.96895
smoothSolver:  Solving for Ux, Initial residual = 0.000684369, Final residual = 9.79866e-07, No Iterations 64
smoothSolver:  Solving for Uy, Initial residual = 0.00195428, Final residual = 9.33876e-07, No Iterations 75
DICPCG:  Solving for p, Initial residual = 0.00237743, Final residual = 0.000105337, No Iterations 112
time step continuity errors : sum local = 3.8369e-08, global = 2.38608e-19, cumulative = -6.42827e-19
DICPCG:  Solving for p, Initial residual = 0.00227066, Final residual = 9.27892e-07, No Iterations 138
time step continuity errors : sum local = 3.38302e-10, global = 2.02277e-19, cumulative = -4.4055e-19
ExecutionTime = 5.46 s  ClockTime = 5 s

Time = 0.04

Courant Number mean: 0.213318 max: 0.969029
smoothSolver:  Solving for Ux, Initial residual = 0.000644959, Final residual = 9.26315e-07, No Iterations 64
smoothSolver:  Solving for Uy, Initial residual = 0.00184199, Final residual = 9.75018e-07, No Iterations 74
DICPCG:  Solving for p, Initial residual = 0.00193181, Final residual = 9.41493e-05, No Iterations 109
time step continuity errors : sum local = 3.4378e-08, global = -1.97064e-19, cumulative = -6.37614e-19
DICPCG:  Solving for p, Initial residual = 0.00184062, Final residual = 8.50076e-07, No Iterations 136
time step continuity errors : sum local = 3.09717e-10, global = 1.02743e-19, cumulative = -5.34871e-19
ExecutionTime = 5.57 s  ClockTime = 6 s

Time = 0.041

Courant Number mean: 0.213891 max: 0.969105
smoothSolver:  Solving for Ux, Initial residual = 0.00060827, Final residual = 9.69529e-07, No Iterations 63
smoothSolver:  Solving for Uy, Initial residual = 0.00173914, Final residual = 9.21963e-07, No Iterations 74
DICPCG:  Solving for p, Initial residual = 0.0018295, Final residual = 8.90765e-05, No Iterations 46
time step continuity errors : sum local = 3.59796e-08, global = 3.17074e-20, cumulative = -5.03164e-19
DICPCG:  Solving for p, Initial residual = 0.00176076, Final residual = 9.7269e-07, No Iterations 134
time step continuity errors : sum local = 3.54479e-10, global = -1.6109e-19, cumulative = -6.64253e-19
ExecutionTime = 5.69 s  ClockTime = 6 s

Time = 0.042

Courant Number mean: 0.214433 max: 0.969174
smoothSolver:  Solving for Ux, Initial residual = 0.000579163, Final residual = 9.22091e-07, No Iterations 63
smoothSolver:  Solving for Uy, Initial residual = 0.00164492, Final residual = 9.62086e-07, No Iterations 73
DICPCG:  Solving for p, Initial residual = 0.00211154, Final residual = 9.42905e-05, No Iterations 95
time step continuity errors : sum local = 3.43781e-08, global = 5.51905e-20, cumulative = -6.09063e-19
DICPCG:  Solving for p, Initial residual = 0.00202293, Final residual = 8.65754e-07, No Iterations 145
time step continuity errors : sum local = 3.15877e-10, global = -1.6897e-19, cumulative = -7.78032e-19
ExecutionTime = 5.81 s  ClockTime = 6 s

Time = 0.043

Courant Number mean: 0.214944 max: 0.969241
smoothSolver:  Solving for Ux, Initial residual = 0.000545746, Final residual = 9.6116e-07, No Iterations 62
smoothSolver:  Solving for Uy, Initial residual = 0.00155958, Final residual = 9.1076e-07, No Iterations 73
DICPCG:  Solving for p, Initial residual = 0.00189699, Final residual = 9.45035e-05, No Iterations 108
time step continuity errors : sum local = 3.44474e-08, global = -9.53441e-20, cumulative = -8.73376e-19
DICPCG:  Solving for p, Initial residual = 0.00182398, Final residual = 9.58102e-07, No Iterations 138
time step continuity errors : sum local = 3.50032e-10, global = 1.05782e-19, cumulative = -7.67594e-19
ExecutionTime = 5.92 s  ClockTime = 6 s

Time = 0.044

Courant Number mean: 0.215426 max: 0.9693
smoothSolver:  Solving for Ux, Initial residual = 0.000515478, Final residual = 9.12006e-07, No Iterations 62
smoothSolver:  Solving for Uy, Initial residual = 0.00146249, Final residual = 9.49191e-07, No Iterations 72
DICPCG:  Solving for p, Initial residual = 0.00177815, Final residual = 8.08774e-05, No Iterations 93
time step continuity errors : sum local = 2.95307e-08, global = -4.20447e-20, cumulative = -8.09639e-19
DICPCG:  Solving for p, Initial residual = 0.00169536, Final residual = 9.51091e-07, No Iterations 121
time step continuity errors : sum local = 3.4726e-10, global = -1.15149e-20, cumulative = -8.21154e-19
ExecutionTime = 6.05 s  ClockTime = 6 s

Time = 0.045

Courant Number mean: 0.215883 max: 0.969354
smoothSolver:  Solving for Ux, Initial residual = 0.000484656, Final residual = 9.5231e-07, No Iterations 61
smoothSolver:  Solving for Uy, Initial residual = 0.00139153, Final residual = 9.04106e-07, No Iterations 72
DICPCG:  Solving for p, Initial residual = 0.00163297, Final residual = 8.11814e-05, No Iterations 52
time step continuity errors : sum local = 3.071e-08, global = -1.71029e-19, cumulative = -9.92182e-19
DICPCG:  Solving for p, Initial residual = 0.0015568, Final residual = 8.74504e-07, No Iterations 133
time step continuity errors : sum local = 3.18747e-10, global = -4.67634e-20, cumulative = -1.03895e-18
ExecutionTime = 6.15 s  ClockTime = 6 s

Time = 0.046

Courant Number mean: 0.216315 max: 0.969408
smoothSolver:  Solving for Ux, Initial residual = 0.00045975, Final residual = 9.04146e-07, No Iterations 61
smoothSolver:  Solving for Uy, Initial residual = 0.00131054, Final residual = 9.42822e-07, No Iterations 71
DICPCG:  Solving for p, Initial residual = 0.00144448, Final residual = 5.78103e-05, No Iterations 93
time step continuity errors : sum local = 2.11247e-08, global = -1.32521e-19, cumulative = -1.17147e-18
DICPCG:  Solving for p, Initial residual = 0.00136618, Final residual = 9.20869e-07, No Iterations 133
time step continuity errors : sum local = 3.3538e-10, global = 6.94708e-20, cumulative = -1.102e-18
ExecutionTime = 6.26 s  ClockTime = 6 s

Time = 0.047

Courant Number mean: 0.216724 max: 0.969458
smoothSolver:  Solving for Ux, Initial residual = 0.000434076, Final residual = 9.46278e-07, No Iterations 60
smoothSolver:  Solving for Uy, Initial residual = 0.0012441, Final residual = 9.91174e-07, No Iterations 70
DICPCG:  Solving for p, Initial residual = 0.00135768, Final residual = 6.46214e-05, No Iterations 45
time step continuity errors : sum local = 2.79251e-08, global = 3.48005e-20, cumulative = -1.0672e-18
DICPCG:  Solving for p, Initial residual = 0.00129468, Final residual = 8.14204e-07, No Iterations 133
time step continuity errors : sum local = 2.9671e-10, global = -5.59804e-20, cumulative = -1.12318e-18
ExecutionTime = 6.36 s  ClockTime = 6 s

Time = 0.048

Courant Number mean: 0.21711 max: 0.969505
smoothSolver:  Solving for Ux, Initial residual = 0.000416642, Final residual = 9.04793e-07, No Iterations 60
smoothSolver:  Solving for Uy, Initial residual = 0.00117343, Final residual = 9.30928e-07, No Iterations 70
DICPCG:  Solving for p, Initial residual = 0.00170131, Final residual = 7.96975e-05, No Iterations 113
time step continuity errors : sum local = 2.90251e-08, global = -1.84072e-19, cumulative = -1.30725e-18
DICPCG:  Solving for p, Initial residual = 0.00163609, Final residual = 7.46697e-07, No Iterations 139
time step continuity errors : sum local = 2.72337e-10, global = 1.78334e-19, cumulative = -1.12891e-18
ExecutionTime = 6.48 s  ClockTime = 6 s

Time = 0.049

Courant Number mean: 0.217475 max: 0.96955
smoothSolver:  Solving for Ux, Initial residual = 0.000390156, Final residual = 9.36084e-07, No Iterations 59
smoothSolver:  Solving for Uy, Initial residual = 0.00112506, Final residual = 9.85249e-07, No Iterations 69
DICPCG:  Solving for p, Initial residual = 0.00152381, Final residual = 7.39753e-05, No Iterations 95
time step continuity errors : sum local = 2.73831e-08, global = 3.58192e-20, cumulative = -1.0931e-18
DICPCG:  Solving for p, Initial residual = 0.00143561, Final residual = 7.48591e-07, No Iterations 134
time step continuity errors : sum local = 2.73489e-10, global = -8.54029e-20, cumulative = -1.1785e-18
ExecutionTime = 6.6 s  ClockTime = 7 s

Time = 0.05

Courant Number mean: 0.21782 max: 0.969588
smoothSolver:  Solving for Ux, Initial residual = 0.00036786, Final residual = 9.84577e-07, No Iterations 58
smoothSolver:  Solving for Uy, Initial residual = 0.00105546, Final residual = 9.28641e-07, No Iterations 69
DICPCG:  Solving for p, Initial residual = 0.00135264, Final residual = 5.9754e-05, No Iterations 55
time step continuity errors : sum local = 2.51883e-08, global = -2.12523e-19, cumulative = -1.39102e-18
DICPCG:  Solving for p, Initial residual = 0.00128096, Final residual = 8.59726e-07, No Iterations 133
time step continuity errors : sum local = 3.13105e-10, global = 8.53575e-20, cumulative = -1.30566e-18
ExecutionTime = 6.69 s  ClockTime = 7 s

Time = 0.051

Courant Number mean: 0.218147 max: 0.969622
smoothSolver:  Solving for Ux, Initial residual = 0.000344565, Final residual = 9.19625e-07, No Iterations 58
smoothSolver:  Solving for Uy, Initial residual = 0.00101607, Final residual = 9.86138e-07, No Iterations 68
DICPCG:  Solving for p, Initial residual = 0.0013849, Final residual = 6.2477e-05, No Iterations 95
time step continuity errors : sum local = 2.27944e-08, global = 2.13007e-19, cumulative = -1.09266e-18
DICPCG:  Solving for p, Initial residual = 0.00130288, Final residual = 9.43431e-07, No Iterations 140
time step continuity errors : sum local = 3.43901e-10, global = -1.72187e-20, cumulative = -1.10988e-18
ExecutionTime = 6.83 s  ClockTime = 7 s

Time = 0.052

Courant Number mean: 0.218456 max: 0.969659
smoothSolver:  Solving for Ux, Initial residual = 0.000332958, Final residual = 9.85052e-07, No Iterations 57
smoothSolver:  Solving for Uy, Initial residual = 0.000947121, Final residual = 9.19269e-07, No Iterations 68
DICPCG:  Solving for p, Initial residual = 0.00121206, Final residual = 5.57006e-05, No Iterations 114
time step continuity errors : sum local = 2.03046e-08, global = -3.58027e-21, cumulative = -1.11346e-18
DICPCG:  Solving for p, Initial residual = 0.00114574, Final residual = 9.4929e-07, No Iterations 134
time step continuity errors : sum local = 3.45822e-10, global = 1.06265e-19, cumulative = -1.00719e-18
ExecutionTime = 6.95 s  ClockTime = 7 s

Time = 0.053

Courant Number mean: 0.218749 max: 0.969693
smoothSolver:  Solving for Ux, Initial residual = 0.000312138, Final residual = 9.2721e-07, No Iterations 57
smoothSolver:  Solving for Uy, Initial residual = 0.000897427, Final residual = 9.7004e-07, No Iterations 67
DICPCG:  Solving for p, Initial residual = 0.00109665, Final residual = 5.11632e-05, No Iterations 98
time step continuity errors : sum local = 1.87846e-08, global = -2.04294e-19, cumulative = -1.21149e-18
DICPCG:  Solving for p, Initial residual = 0.00104436, Final residual = 9.43553e-07, No Iterations 132
time step continuity errors : sum local = 3.4369e-10, global = 9.86994e-20, cumulative = -1.11279e-18
ExecutionTime = 7.06 s  ClockTime = 7 s

Time = 0.054

Courant Number mean: 0.219026 max: 0.969724
smoothSolver:  Solving for Ux, Initial residual = 0.000293106, Final residual = 9.67904e-07, No Iterations 56
smoothSolver:  Solving for Uy, Initial residual = 0.000854271, Final residual = 9.23646e-07, No Iterations 67
DICPCG:  Solving for p, Initial residual = 0.000957576, Final residual = 4.5973e-05, No Iterations 54
time step continuity errors : sum local = 1.96261e-08, global = -1.48856e-19, cumulative = -1.26164e-18
DICPCG:  Solving for p, Initial residual = 0.000912625, Final residual = 9.77683e-07, No Iterations 131
time step continuity errors : sum local = 3.55918e-10, global = 1.57323e-19, cumulative = -1.10432e-18
ExecutionTime = 7.15 s  ClockTime = 7 s

Time = 0.055

Courant Number mean: 0.219288 max: 0.969756
smoothSolver:  Solving for Ux, Initial residual = 0.000277121, Final residual = 9.11298e-07, No Iterations 56
smoothSolver:  Solving for Uy, Initial residual = 0.000817831, Final residual = 9.74071e-07, No Iterations 66
DICPCG:  Solving for p, Initial residual = 0.00106088, Final residual = 4.8045e-05, No Iterations 113
time step continuity errors : sum local = 1.74969e-08, global = -4.12142e-20, cumulative = -1.14553e-18
DICPCG:  Solving for p, Initial residual = 0.00101367, Final residual = 9.01934e-07, No Iterations 135
time step continuity errors : sum local = 3.2899e-10, global = 3.65331e-20, cumulative = -1.109e-18
ExecutionTime = 7.28 s  ClockTime = 7 s

Time = 0.056

Courant Number mean: 0.219536 max: 0.969781
smoothSolver:  Solving for Ux, Initial residual = 0.000267789, Final residual = 9.74562e-07, No Iterations 55
smoothSolver:  Solving for Uy, Initial residual = 0.000762811, Final residual = 9.08647e-07, No Iterations 66
DICPCG:  Solving for p, Initial residual = 0.000970145, Final residual = 4.27645e-05, No Iterations 110
time step continuity errors : sum local = 1.5613e-08, global = 5.1272e-20, cumulative = -1.05773e-18
DICPCG:  Solving for p, Initial residual = 0.000930737, Final residual = 7.46174e-07, No Iterations 133
time step continuity errors : sum local = 2.71882e-10, global = 1.54775e-19, cumulative = -9.02953e-19
ExecutionTime = 7.39 s  ClockTime = 7 s

Time = 0.057

Courant Number mean: 0.21977 max: 0.969807
smoothSolver:  Solving for Ux, Initial residual = 0.000251314, Final residual = 9.18538e-07, No Iterations 55
smoothSolver:  Solving for Uy, Initial residual = 0.000723848, Final residual = 9.59725e-07, No Iterations 65
DICPCG:  Solving for p, Initial residual = 0.000867842, Final residual = 4.00633e-05, No Iterations 103
time step continuity errors : sum local = 1.45958e-08, global = -1.56648e-19, cumulative = -1.0596e-18
DICPCG:  Solving for p, Initial residual = 0.00082826, Final residual = 9.16413e-07, No Iterations 138
time step continuity errors : sum local = 3.34276e-10, global = -8.00039e-21, cumulative = -1.0676e-18
ExecutionTime = 7.5 s  ClockTime = 8 s

Time = 0.058

Courant Number mean: 0.219992 max: 0.969831
smoothSolver:  Solving for Ux, Initial residual = 0.000239663, Final residual = 9.71509e-07, No Iterations 54
smoothSolver:  Solving for Uy, Initial residual = 0.000678489, Final residual = 9.98891e-07, No Iterations 64
DICPCG:  Solving for p, Initial residual = 0.000721683, Final residual = 3.31817e-05, No Iterations 93
time step continuity errors : sum local = 1.22113e-08, global = 2.61242e-19, cumulative = -8.06359e-19
DICPCG:  Solving for p, Initial residual = 0.000685628, Final residual = 9.49192e-07, No Iterations 113
time step continuity errors : sum local = 3.48134e-10, global = 1.77011e-20, cumulative = -7.88658e-19
ExecutionTime = 7.6 s  ClockTime = 8 s

Time = 0.059

Courant Number mean: 0.220203 max: 0.969853
smoothSolver:  Solving for Ux, Initial residual = 0.000224793, Final residual = 9.12216e-07, No Iterations 54
smoothSolver:  Solving for Uy, Initial residual = 0.000650491, Final residual = 9.57409e-07, No Iterations 64
DICPCG:  Solving for p, Initial residual = 0.000673691, Final residual = 2.29856e-05, No Iterations 53
time step continuity errors : sum local = 9.24246e-09, global = -1.27829e-19, cumulative = -9.16488e-19
DICPCG:  Solving for p, Initial residual = 0.000645006, Final residual = 8.73547e-07, No Iterations 125
time step continuity errors : sum local = 3.18575e-10, global = 2.50815e-19, cumulative = -6.65672e-19
ExecutionTime = 7.7 s  ClockTime = 8 s

Time = 0.06

Courant Number mean: 0.220403 max: 0.969876
smoothSolver:  Solving for Ux, Initial residual = 0.000212321, Final residual = 9.55422e-07, No Iterations 53
smoothSolver:  Solving for Uy, Initial residual = 0.000618583, Final residual = 9.08555e-07, No Iterations 64
DICPCG:  Solving for p, Initial residual = 0.000611905, Final residual = 2.4688e-05, No Iterations 93
time step continuity errors : sum local = 8.99025e-09, global = -2.78683e-20, cumulative = -6.9354e-19
DICPCG:  Solving for p, Initial residual = 0.000585363, Final residual = 9.48399e-07, No Iterations 130
time step continuity errors : sum local = 3.45325e-10, global = 3.85002e-20, cumulative = -6.5504e-19
ExecutionTime = 7.81 s  ClockTime = 8 s

Time = 0.061

Courant Number mean: 0.220592 max: 0.969895
smoothSolver:  Solving for Ux, Initial residual = 0.000202852, Final residual = 9.1261e-07, No Iterations 53
smoothSolver:  Solving for Uy, Initial residual = 0.000582177, Final residual = 9.47906e-07, No Iterations 63
DICPCG:  Solving for p, Initial residual = 0.000536514, Final residual = 2.3807e-05, No Iterations 107
time step continuity errors : sum local = 8.67118e-09, global = 2.20448e-19, cumulative = -4.34593e-19
DICPCG:  Solving for p, Initial residual = 0.000513274, Final residual = 9.37365e-07, No Iterations 127
time step continuity errors : sum local = 3.4139e-10, global = -3.88529e-21, cumulative = -4.38478e-19
ExecutionTime = 7.92 s  ClockTime = 8 s

Time = 0.062

Courant Number mean: 0.220771 max: 0.969913
smoothSolver:  Solving for Ux, Initial residual = 0.000192063, Final residual = 9.58014e-07, No Iterations 52
smoothSolver:  Solving for Uy, Initial residual = 0.000552242, Final residual = 9.97039e-07, No Iterations 62
DICPCG:  Solving for p, Initial residual = 0.000524234, Final residual = 2.58914e-05, No Iterations 41
time step continuity errors : sum local = 1.06221e-08, global = -1.39153e-19, cumulative = -5.77631e-19
DICPCG:  Solving for p, Initial residual = 0.000500058, Final residual = 8.82607e-07, No Iterations 127
time step continuity errors : sum local = 3.21702e-10, global = 1.03176e-19, cumulative = -4.74455e-19
ExecutionTime = 8.01 s  ClockTime = 8 s

Time = 0.063

Courant Number mean: 0.22094 max: 0.969932
smoothSolver:  Solving for Ux, Initial residual = 0.000184416, Final residual = 9.16859e-07, No Iterations 52
smoothSolver:  Solving for Uy, Initial residual = 0.000520175, Final residual = 9.38249e-07, No Iterations 62
DICPCG:  Solving for p, Initial residual = 0.00064981, Final residual = 2.82759e-05, No Iterations 97
time step continuity errors : sum local = 1.02944e-08, global = -1.96313e-21, cumulative = -4.76418e-19
DICPCG:  Solving for p, Initial residual = 0.00062353, Final residual = 9.38287e-07, No Iterations 133
time step continuity errors : sum local = 3.41746e-10, global = 1.53748e-19, cumulative = -3.2267e-19
ExecutionTime = 8.11 s  ClockTime = 8 s

Time = 0.064

Courant Number mean: 0.221101 max: 0.969949
smoothSolver:  Solving for Ux, Initial residual = 0.000172988, Final residual = 9.5168e-07, No Iterations 51
smoothSolver:  Solving for Uy, Initial residual = 0.0005006, Final residual = 9.9694e-07, No Iterations 61
DICPCG:  Solving for p, Initial residual = 0.000582237, Final residual = 2.56938e-05, No Iterations 94
time step continuity errors : sum local = 9.41446e-09, global = 7.0907e-20, cumulative = -2.51763e-19
DICPCG:  Solving for p, Initial residual = 0.00055642, Final residual = 9.95801e-07, No Iterations 117
time step continuity errors : sum local = 3.65693e-10, global = -6.42952e-20, cumulative = -3.16058e-19
ExecutionTime = 8.22 s  ClockTime = 8 s

Time = 0.065

Courant Number mean: 0.221254 max: 0.969965
smoothSolver:  Solving for Ux, Initial residual = 0.00016419, Final residual = 9.06446e-07, No Iterations 51
smoothSolver:  Solving for Uy, Initial residual = 0.00047149, Final residual = 9.41257e-07, No Iterations 61
DICPCG:  Solving for p, Initial residual = 0.00054436, Final residual = 2.69756e-05, No Iterations 46
time step continuity errors : sum local = 1.18855e-08, global = -9.2789e-20, cumulative = -4.08847e-19
DICPCG:  Solving for p, Initial residual = 0.000522949, Final residual = 8.09543e-07, No Iterations 130
time step continuity errors : sum local = 2.95433e-10, global = -5.71e-20, cumulative = -4.65947e-19
ExecutionTime = 8.31 s  ClockTime = 8 s

Time = 0.066

Courant Number mean: 0.221398 max: 0.969979
smoothSolver:  Solving for Ux, Initial residual = 0.000152627, Final residual = 9.2876e-07, No Iterations 50
smoothSolver:  Solving for Uy, Initial residual = 0.000461202, Final residual = 9.13148e-07, No Iterations 61
DICPCG:  Solving for p, Initial residual = 0.000724059, Final residual = 3.61188e-05, No Iterations 114
time step continuity errors : sum local = 1.31488e-08, global = 1.18121e-19, cumulative = -3.47826e-19
DICPCG:  Solving for p, Initial residual = 0.00069412, Final residual = 8.94814e-07, No Iterations 134
time step continuity errors : sum local = 3.26536e-10, global = 2.13036e-19, cumulative = -1.3479e-19
ExecutionTime = 8.42 s  ClockTime = 8 s

Time = 0.067

Courant Number mean: 0.221535 max: 0.969993
smoothSolver:  Solving for Ux, Initial residual = 0.000150394, Final residual = 9.1066e-07, No Iterations 50
smoothSolver:  Solving for Uy, Initial residual = 0.000425138, Final residual = 9.31169e-07, No Iterations 60
DICPCG:  Solving for p, Initial residual = 0.000629068, Final residual = 3.12549e-05, No Iterations 113
time step continuity errors : sum local = 1.13796e-08, global = -2.64532e-19, cumulative = -3.99322e-19
DICPCG:  Solving for p, Initial residual = 0.000592829, Final residual = 7.20148e-07, No Iterations 132
time step continuity errors : sum local = 2.62553e-10, global = -1.35218e-19, cumulative = -5.34539e-19
ExecutionTime = 8.54 s  ClockTime = 9 s

Time = 0.068

Courant Number mean: 0.221664 max: 0.970006
smoothSolver:  Solving for Ux, Initial residual = 0.000140161, Final residual = 9.47008e-07, No Iterations 49
smoothSolver:  Solving for Uy, Initial residual = 0.000404807, Final residual = 9.88902e-07, No Iterations 59
DICPCG:  Solving for p, Initial residual = 0.000550059, Final residual = 2.66037e-05, No Iterations 94
time step continuity errors : sum local = 9.82549e-09, global = 1.0851e-19, cumulative = -4.2603e-19
DICPCG:  Solving for p, Initial residual = 0.000520317, Final residual = 8.77253e-07, No Iterations 129
time step continuity errors : sum local = 3.19895e-10, global = -5.85065e-20, cumulative = -4.84536e-19
ExecutionTime = 8.64 s  ClockTime = 9 s

Time = 0.069

Courant Number mean: 0.221787 max: 0.970018
smoothSolver:  Solving for Ux, Initial residual = 0.000133058, Final residual = 9.984e-07, No Iterations 48
smoothSolver:  Solving for Uy, Initial residual = 0.00038179, Final residual = 9.34039e-07, No Iterations 59
DICPCG:  Solving for p, Initial residual = 0.000488119, Final residual = 2.41544e-05, No Iterations 41
time step continuity errors : sum local = 9.06327e-09, global = 3.97301e-19, cumulative = -8.72357e-20
DICPCG:  Solving for p, Initial residual = 0.000464225, Final residual = 9.82836e-07, No Iterations 128
time step continuity errors : sum local = 3.58439e-10, global = 5.58324e-20, cumulative = -3.14033e-20
ExecutionTime = 8.73 s  ClockTime = 9 s

Time = 0.07

Courant Number mean: 0.221904 max: 0.970029
smoothSolver:  Solving for Ux, Initial residual = 0.000124265, Final residual = 9.33346e-07, No Iterations 48
smoothSolver:  Solving for Uy, Initial residual = 0.000368938, Final residual = 9.97283e-07, No Iterations 58
DICPCG:  Solving for p, Initial residual = 0.00050201, Final residual = 2.24095e-05, No Iterations 94
time step continuity errors : sum local = 8.17482e-09, global = 5.38245e-20, cumulative = 2.24212e-20
DICPCG:  Solving for p, Initial residual = 0.000478785, Final residual = 8.93471e-07, No Iterations 130
time step continuity errors : sum local = 3.25438e-10, global = -6.13924e-20, cumulative = -3.89711e-20
ExecutionTime = 8.83 s  ClockTime = 9 s

Time = 0.071

Courant Number mean: 0.222014 max: 0.970041
smoothSolver:  Solving for Ux, Initial residual = 0.000120463, Final residual = 9.99873e-07, No Iterations 47
smoothSolver:  Solving for Uy, Initial residual = 0.000343455, Final residual = 9.29663e-07, No Iterations 58
DICPCG:  Solving for p, Initial residual = 0.000416907, Final residual = 1.73055e-05, No Iterations 107
time step continuity errors : sum local = 6.3006e-09, global = 2.09856e-19, cumulative = 1.70885e-19
DICPCG:  Solving for p, Initial residual = 0.000395294, Final residual = 9.00545e-07, No Iterations 127
time step continuity errors : sum local = 3.27972e-10, global = -2.49527e-19, cumulative = -7.86421e-20
ExecutionTime = 8.92 s  ClockTime = 9 s

Time = 0.072

Courant Number mean: 0.222119 max: 0.970051
smoothSolver:  Solving for Ux, Initial residual = 0.000113365, Final residual = 9.43289e-07, No Iterations 47
smoothSolver:  Solving for Uy, Initial residual = 0.000326882, Final residual = 9.82175e-07, No Iterations 57
DICPCG:  Solving for p, Initial residual = 0.000330874, Final residual = 1.60279e-05, No Iterations 56
time step continuity errors : sum local = 6.97136e-09, global = 7.47035e-21, cumulative = -7.11718e-20
DICPCG:  Solving for p, Initial residual = 0.000316348, Final residual = 9.27732e-07, No Iterations 125
time step continuity errors : sum local = 3.37623e-10, global = -6.66061e-20, cumulative = -1.37778e-19
ExecutionTime = 9.03 s  ClockTime = 9 s

Time = 0.073

Courant Number mean: 0.222218 max: 0.970061
smoothSolver:  Solving for Ux, Initial residual = 0.000110393, Final residual = 9.13265e-07, No Iterations 47
smoothSolver:  Solving for Uy, Initial residual = 0.000305207, Final residual = 9.15518e-07, No Iterations 57
DICPCG:  Solving for p, Initial residual = 0.000426042, Final residual = 2.03049e-05, No Iterations 114
time step continuity errors : sum local = 7.39123e-09, global = 2.30258e-19, cumulative = 9.248e-20
DICPCG:  Solving for p, Initial residual = 0.000407508, Final residual = 8.54342e-07, No Iterations 132
time step continuity errors : sum local = 3.10788e-10, global = 1.86843e-19, cumulative = 2.79323e-19
ExecutionTime = 9.12 s  ClockTime = 9 s

Time = 0.074

Courant Number mean: 0.222312 max: 0.970071
smoothSolver:  Solving for Ux, Initial residual = 0.000102293, Final residual = 9.35575e-07, No Iterations 46
smoothSolver:  Solving for Uy, Initial residual = 0.000298074, Final residual = 9.85401e-07, No Iterations 56
DICPCG:  Solving for p, Initial residual = 0.000385622, Final residual = 1.88537e-05, No Iterations 95
time step continuity errors : sum local = 6.86956e-09, global = -1.3427e-20, cumulative = 2.65896e-19
DICPCG:  Solving for p, Initial residual = 0.000364893, Final residual = 8.64168e-07, No Iterations 130
time step continuity errors : sum local = 3.14798e-10, global = 1.5792e-19, cumulative = 4.23815e-19
ExecutionTime = 9.24 s  ClockTime = 9 s

Time = 0.075

Courant Number mean: 0.222401 max: 0.970079
smoothSolver:  Solving for Ux, Initial residual = 9.73164e-05, Final residual = 9.91764e-07, No Iterations 45
smoothSolver:  Solving for Uy, Initial residual = 0.000279481, Final residual = 9.27747e-07, No Iterations 56
DICPCG:  Solving for p, Initial residual = 0.000338828, Final residual = 1.44565e-05, No Iterations 108
time step continuity errors : sum local = 5.27658e-09, global = -1.14101e-19, cumulative = 3.09714e-19
DICPCG:  Solving for p, Initial residual = 0.00032249, Final residual = 8.9488e-07, No Iterations 128
time step continuity errors : sum local = 3.26037e-10, global = -9.31937e-20, cumulative = 2.1652e-19
ExecutionTime = 9.33 s  ClockTime = 9 s

Time = 0.076

Courant Number mean: 0.222486 max: 0.970088
smoothSolver:  Solving for Ux, Initial residual = 9.2109e-05, Final residual = 9.39398e-07, No Iterations 45
smoothSolver:  Solving for Uy, Initial residual = 0.000265259, Final residual = 9.77226e-07, No Iterations 55
DICPCG:  Solving for p, Initial residual = 0.000299872, Final residual = 1.12347e-05, No Iterations 93
time step continuity errors : sum local = 4.09177e-09, global = 1.31299e-20, cumulative = 2.2965e-19
DICPCG:  Solving for p, Initial residual = 0.000285056, Final residual = 9.59774e-07, No Iterations 108
time step continuity errors : sum local = 3.52281e-10, global = -2.14851e-19, cumulative = 1.4799e-20
ExecutionTime = 9.44 s  ClockTime = 9 s

Time = 0.077

Courant Number mean: 0.222566 max: 0.970095
smoothSolver:  Solving for Ux, Initial residual = 8.74692e-05, Final residual = 9.89374e-07, No Iterations 44
smoothSolver:  Solving for Uy, Initial residual = 0.000251299, Final residual = 9.26526e-07, No Iterations 55
DICPCG:  Solving for p, Initial residual = 0.000262109, Final residual = 1.25784e-05, No Iterations 50
time step continuity errors : sum local = 5.14011e-09, global = 1.10071e-19, cumulative = 1.2487e-19
DICPCG:  Solving for p, Initial residual = 0.000251029, Final residual = 8.59332e-07, No Iterations 121
time step continuity errors : sum local = 3.13973e-10, global = 1.68687e-19, cumulative = 2.93557e-19
ExecutionTime = 9.51 s  ClockTime = 10 s

Time = 0.078

Courant Number mean: 0.222642 max: 0.970103
smoothSolver:  Solving for Ux, Initial residual = 8.20083e-05, Final residual = 9.26769e-07, No Iterations 44
smoothSolver:  Solving for Uy, Initial residual = 0.000242465, Final residual = 9.85458e-07, No Iterations 54
DICPCG:  Solving for p, Initial residual = 0.000293577, Final residual = 1.44845e-05, No Iterations 96
time step continuity errors : sum local = 5.27261e-09, global = 2.24779e-19, cumulative = 5.18336e-19
DICPCG:  Solving for p, Initial residual = 0.000281515, Final residual = 8.48989e-07, No Iterations 130
time step continuity errors : sum local = 3.09674e-10, global = -1.91824e-19, cumulative = 3.26512e-19
ExecutionTime = 9.62 s  ClockTime = 10 s

Time = 0.079

Courant Number mean: 0.222714 max: 0.970109
smoothSolver:  Solving for Ux, Initial residual = 7.94757e-05, Final residual = 9.91936e-07, No Iterations 43
smoothSolver:  Solving for Uy, Initial residual = 0.000226568, Final residual = 9.20823e-07, No Iterations 54
DICPCG:  Solving for p, Initial residual = 0.000270279, Final residual = 1.33366e-05, No Iterations 102
time step continuity errors : sum local = 4.86807e-09, global = -1.89511e-19, cumulative = 1.37001e-19
DICPCG:  Solving for p, Initial residual = 0.000258118, Final residual = 9.48006e-07, No Iterations 127
time step continuity errors : sum local = 3.45207e-10, global = 1.556e-19, cumulative = 2.92601e-19
ExecutionTime = 9.71 s  ClockTime = 10 s

Time = 0.08

Courant Number mean: 0.222782 max: 0.970116
smoothSolver:  Solving for Ux, Initial residual = 7.53442e-05, Final residual = 9.42876e-07, No Iterations 43
smoothSolver:  Solving for Uy, Initial residual = 0.000214016, Final residual = 9.66716e-07, No Iterations 53
DICPCG:  Solving for p, Initial residual = 0.000222173, Final residual = 9.41224e-06, No Iterations 93
time step continuity errors : sum local = 3.42905e-09, global = 2.67736e-19, cumulative = 5.60337e-19
DICPCG:  Solving for p, Initial residual = 0.000210501, Final residual = 8.45228e-07, No Iterations 120
time step continuity errors : sum local = 3.07803e-10, global = -9.55743e-21, cumulative = 5.50779e-19
ExecutionTime = 9.83 s  ClockTime = 10 s

Time = 0.081

Courant Number mean: 0.222847 max: 0.970122
smoothSolver:  Solving for Ux, Initial residual = 7.09276e-05, Final residual = 9.84419e-07, No Iterations 42
smoothSolver:  Solving for Uy, Initial residual = 0.000204762, Final residual = 9.25095e-07, No Iterations 53
DICPCG:  Solving for p, Initial residual = 0.000211456, Final residual = 8.53684e-06, No Iterations 53
time step continuity errors : sum local = 3.87291e-09, global = 1.64121e-19, cumulative = 7.149e-19
DICPCG:  Solving for p, Initial residual = 0.000203035, Final residual = 9.13661e-07, No Iterations 119
time step continuity errors : sum local = 3.33005e-10, global = -6.70031e-20, cumulative = 6.47897e-19
ExecutionTime = 9.91 s  ClockTime = 10 s

Time = 0.082

Courant Number mean: 0.222909 max: 0.970128
smoothSolver:  Solving for Ux, Initial residual = 6.67947e-05, Final residual = 9.2297e-07, No Iterations 42
smoothSolver:  Solving for Uy, Initial residual = 0.000197851, Final residual = 9.83234e-07, No Iterations 52
DICPCG:  Solving for p, Initial residual = 0.000259906, Final residual = 1.14893e-05, No Iterations 97
time step continuity errors : sum local = 4.18398e-09, global = -2.49427e-21, cumulative = 6.45403e-19
DICPCG:  Solving for p, Initial residual = 0.000248898, Final residual = 9.81181e-07, No Iterations 124
time step continuity errors : sum local = 3.57682e-10, global = -3.2327e-20, cumulative = 6.13076e-19
ExecutionTime = 10.02 s  ClockTime = 10 s

Time = 0.083

Courant Number mean: 0.222967 max: 0.970133
smoothSolver:  Solving for Ux, Initial residual = 6.48736e-05, Final residual = 9.89909e-07, No Iterations 41
smoothSolver:  Solving for Uy, Initial residual = 0.000184473, Final residual = 9.16599e-07, No Iterations 52
DICPCG:  Solving for p, Initial residual = 0.00023444, Final residual = 1.16013e-05, No Iterations 108
time step continuity errors : sum local = 4.23885e-09, global = 2.59118e-20, cumulative = 6.38988e-19
DICPCG:  Solving for p, Initial residual = 0.000224449, Final residual = 9.49735e-07, No Iterations 125
time step continuity errors : sum local = 3.46001e-10, global = -1.08699e-19, cumulative = 5.30289e-19
ExecutionTime = 10.12 s  ClockTime = 10 s

Time = 0.084

Courant Number mean: 0.223022 max: 0.970139
smoothSolver:  Solving for Ux, Initial residual = 6.08495e-05, Final residual = 9.33247e-07, No Iterations 41
smoothSolver:  Solving for Uy, Initial residual = 0.000175826, Final residual = 9.71451e-07, No Iterations 51
DICPCG:  Solving for p, Initial residual = 0.000212802, Final residual = 9.37619e-06, No Iterations 93
time step continuity errors : sum local = 3.44955e-09, global = -1.09229e-19, cumulative = 4.2106e-19
DICPCG:  Solving for p, Initial residual = 0.000202219, Final residual = 9.23998e-07, No Iterations 108
time step continuity errors : sum local = 3.37604e-10, global = -2.0212e-19, cumulative = 2.1894e-19
ExecutionTime = 10.21 s  ClockTime = 10 s

Time = 0.085

Courant Number mean: 0.223075 max: 0.970144
smoothSolver:  Solving for Ux, Initial residual = 5.80114e-05, Final residual = 9.85998e-07, No Iterations 40
smoothSolver:  Solving for Uy, Initial residual = 0.000165881, Final residual = 9.18174e-07, No Iterations 51
DICPCG:  Solving for p, Initial residual = 0.000185757, Final residual = 8.69042e-06, No Iterations 51
time step continuity errors : sum local = 3.25246e-09, global = -1.57863e-19, cumulative = 6.10767e-20
DICPCG:  Solving for p, Initial residual = 0.000176728, Final residual = 9.76513e-07, No Iterations 124
time step continuity errors : sum local = 3.5608e-10, global = -2.58131e-19, cumulative = -1.97055e-19
ExecutionTime = 10.29 s  ClockTime = 10 s

Time = 0.086

Courant Number mean: 0.223125 max: 0.970148
smoothSolver:  Solving for Ux, Initial residual = 5.46496e-05, Final residual = 9.29731e-07, No Iterations 40
smoothSolver:  Solving for Uy, Initial residual = 0.000158653, Final residual = 9.72138e-07, No Iterations 50
DICPCG:  Solving for p, Initial residual = 0.00016953, Final residual = 8.19248e-06, No Iterations 93
time step continuity errors : sum local = 3.00118e-09, global = -1.19069e-19, cumulative = -3.16123e-19
DICPCG:  Solving for p, Initial residual = 0.000161844, Final residual = 9.44986e-07, No Iterations 102
time step continuity errors : sum local = 3.44576e-10, global = 1.85049e-19, cumulative = -1.31074e-19
ExecutionTime = 10.39 s  ClockTime = 10 s

Time = 0.087

Courant Number mean: 0.223172 max: 0.970153
smoothSolver:  Solving for Ux, Initial residual = 5.23639e-05, Final residual = 9.86041e-07, No Iterations 39
smoothSolver:  Solving for Uy, Initial residual = 0.000149384, Final residual = 9.1594e-07, No Iterations 50
DICPCG:  Solving for p, Initial residual = 0.00016909, Final residual = 7.18286e-06, No Iterations 49
time step continuity errors : sum local = 2.78574e-09, global = 8.41655e-20, cumulative = -4.69083e-20
DICPCG:  Solving for p, Initial residual = 0.000161983, Final residual = 9.2222e-07, No Iterations 119
time step continuity errors : sum local = 3.36364e-10, global = 3.20651e-20, cumulative = -1.48432e-20
ExecutionTime = 10.47 s  ClockTime = 10 s

Time = 0.088

Courant Number mean: 0.223217 max: 0.970157
smoothSolver:  Solving for Ux, Initial residual = 4.91729e-05, Final residual = 9.26389e-07, No Iterations 39
smoothSolver:  Solving for Uy, Initial residual = 0.000143661, Final residual = 9.73805e-07, No Iterations 49
DICPCG:  Solving for p, Initial residual = 0.000157766, Final residual = 7.85655e-06, No Iterations 97
time step continuity errors : sum local = 2.88414e-09, global = 1.37352e-19, cumulative = 1.22509e-19
DICPCG:  Solving for p, Initial residual = 0.000151357, Final residual = 8.68468e-07, No Iterations 125
time step continuity errors : sum local = 3.16065e-10, global = 6.20111e-20, cumulative = 1.8452e-19
ExecutionTime = 10.58 s  ClockTime = 11 s

Time = 0.089

Courant Number mean: 0.22326 max: 0.970161
smoothSolver:  Solving for Ux, Initial residual = 4.72631e-05, Final residual = 9.8501e-07, No Iterations 38
smoothSolver:  Solving for Uy, Initial residual = 0.000135185, Final residual = 9.1661e-07, No Iterations 49
DICPCG:  Solving for p, Initial residual = 0.000156878, Final residual = 6.87765e-06, No Iterations 108
time step continuity errors : sum local = 2.50366e-09, global = -1.95772e-19, cumulative = -1.12518e-20
DICPCG:  Solving for p, Initial residual = 0.000150024, Final residual = 9.39365e-07, No Iterations 117
time step continuity errors : sum local = 3.42095e-10, global = 1.43134e-19, cumulative = 1.31882e-19
ExecutionTime = 10.67 s  ClockTime = 11 s

Time = 0.09

Courant Number mean: 0.2233 max: 0.970165
smoothSolver:  Solving for Ux, Initial residual = 4.47544e-05, Final residual = 9.33422e-07, No Iterations 38
smoothSolver:  Solving for Uy, Initial residual = 0.00012829, Final residual = 9.65307e-07, No Iterations 48
DICPCG:  Solving for p, Initial residual = 0.000134106, Final residual = 6.25174e-06, No Iterations 92
time step continuity errors : sum local = 2.27539e-09, global = 1.33862e-19, cumulative = 2.65743e-19
DICPCG:  Solving for p, Initial residual = 0.000128024, Final residual = 8.97541e-07, No Iterations 117
time step continuity errors : sum local = 3.27192e-10, global = 3.58454e-20, cumulative = 3.01589e-19
ExecutionTime = 10.76 s  ClockTime = 11 s

Time = 0.091

Courant Number mean: 0.223338 max: 0.970168
smoothSolver:  Solving for Ux, Initial residual = 4.24919e-05, Final residual = 9.82616e-07, No Iterations 37
smoothSolver:  Solving for Uy, Initial residual = 0.000121764, Final residual = 9.1669e-07, No Iterations 48
DICPCG:  Solving for p, Initial residual = 0.000133301, Final residual = 5.41852e-06, No Iterations 50
time step continuity errors : sum local = 2.17928e-09, global = 1.3788e-19, cumulative = 4.39469e-19
DICPCG:  Solving for p, Initial residual = 0.000128552, Final residual = 9.58456e-07, No Iterations 115
time step continuity errors : sum local = 3.49826e-10, global = -1.13991e-19, cumulative = 3.25477e-19
ExecutionTime = 10.84 s  ClockTime = 11 s

Time = 0.092

Courant Number mean: 0.223375 max: 0.970172
smoothSolver:  Solving for Ux, Initial residual = 4.00866e-05, Final residual = 9.26063e-07, No Iterations 37
smoothSolver:  Solving for Uy, Initial residual = 0.000116911, Final residual = 9.71048e-07, No Iterations 47
DICPCG:  Solving for p, Initial residual = 0.000137324, Final residual = 6.62824e-06, No Iterations 112
time step continuity errors : sum local = 2.41794e-09, global = 1.06428e-19, cumulative = 4.31906e-19
DICPCG:  Solving for p, Initial residual = 0.000132516, Final residual = 8.31503e-07, No Iterations 126
time step continuity errors : sum local = 3.02775e-10, global = -1.78299e-19, cumulative = 2.53607e-19
ExecutionTime = 10.94 s  ClockTime = 11 s

Time = 0.093

Courant Number mean: 0.223409 max: 0.970175
smoothSolver:  Solving for Ux, Initial residual = 3.85842e-05, Final residual = 9.85073e-07, No Iterations 36
smoothSolver:  Solving for Uy, Initial residual = 0.000109874, Final residual = 9.12953e-07, No Iterations 47
DICPCG:  Solving for p, Initial residual = 0.000130743, Final residual = 6.06541e-06, No Iterations 94
time step continuity errors : sum local = 2.2147e-09, global = -1.39543e-19, cumulative = 1.14064e-19
DICPCG:  Solving for p, Initial residual = 0.000125433, Final residual = 9.39856e-07, No Iterations 124
time step continuity errors : sum local = 3.42418e-10, global = 1.87224e-19, cumulative = 3.01288e-19
ExecutionTime = 11.03 s  ClockTime = 11 s

Time = 0.094

Courant Number mean: 0.223442 max: 0.970178
smoothSolver:  Solving for Ux, Initial residual = 3.64593e-05, Final residual = 9.3262e-07, No Iterations 36
smoothSolver:  Solving for Uy, Initial residual = 0.000104442, Final residual = 9.63195e-07, No Iterations 46
DICPCG:  Solving for p, Initial residual = 0.000124537, Final residual = 5.32135e-06, No Iterations 108
time step continuity errors : sum local = 1.94086e-09, global = -6.00293e-20, cumulative = 2.41259e-19
DICPCG:  Solving for p, Initial residual = 0.000119501, Final residual = 9.89682e-07, No Iterations 120
time step continuity errors : sum local = 3.60536e-10, global = 7.25276e-20, cumulative = 3.13786e-19
ExecutionTime = 11.12 s  ClockTime = 11 s

Time = 0.095

Courant Number mean: 0.223473 max: 0.97018
smoothSolver:  Solving for Ux, Initial residual = 3.46872e-05, Final residual = 9.82827e-07, No Iterations 35
smoothSolver:  Solving for Uy, Initial residual = 9.93466e-05, Final residual = 9.15874e-07, No Iterations 46
DICPCG:  Solving for p, Initial residual = 0.000113695, Final residual = 5.4191e-06, No Iterations 50
time step continuity errors : sum local = 2.03799e-09, global = 4.99987e-20, cumulative = 3.63785e-19
DICPCG:  Solving for p, Initial residual = 0.000108943, Final residual = 9.39487e-07, No Iterations 70
time step continuity errors : sum local = 3.97883e-10, global = -1.55757e-20, cumulative = 3.48209e-19
ExecutionTime = 11.19 s  ClockTime = 11 s

Time = 0.096

Courant Number mean: 0.223502 max: 0.970183
smoothSolver:  Solving for Ux, Initial residual = 3.28344e-05, Final residual = 9.31244e-07, No Iterations 35
smoothSolver:  Solving for Uy, Initial residual = 9.44704e-05, Final residual = 9.64512e-07, No Iterations 45
DICPCG:  Solving for p, Initial residual = 0.00011068, Final residual = 4.8945e-06, No Iterations 56
time step continuity errors : sum local = 2.17907e-09, global = 1.77717e-19, cumulative = 5.25926e-19
DICPCG:  Solving for p, Initial residual = 0.000106698, Final residual = 8.95638e-07, No Iterations 124
time step continuity errors : sum local = 3.26395e-10, global = -3.16316e-20, cumulative = 4.94295e-19
ExecutionTime = 11.28 s  ClockTime = 11 s

Time = 0.097

Courant Number mean: 0.22353 max: 0.970186
smoothSolver:  Solving for Ux, Initial residual = 3.21293e-05, Final residual = 9.04605e-07, No Iterations 35
smoothSolver:  Solving for Uy, Initial residual = 8.82782e-05, Final residual = 9.94043e-07, No Iterations 44
DICPCG:  Solving for p, Initial residual = 0.000129701, Final residual = 6.24384e-06, No Iterations 113
time step continuity errors : sum local = 2.27263e-09, global = -1.4008e-19, cumulative = 3.54215e-19
DICPCG:  Solving for p, Initial residual = 0.000125158, Final residual = 9.569e-07, No Iterations 125
time step continuity errors : sum local = 3.48268e-10, global = -8.78244e-20, cumulative = 2.66391e-19
ExecutionTime = 11.38 s  ClockTime = 11 s

Time = 0.098

Courant Number mean: 0.223557 max: 0.970188
smoothSolver:  Solving for Ux, Initial residual = 2.97891e-05, Final residual = 9.2657e-07, No Iterations 34
smoothSolver:  Solving for Uy, Initial residual = 8.65129e-05, Final residual = 9.69881e-07, No Iterations 44
DICPCG:  Solving for p, Initial residual = 0.000119263, Final residual = 5.19295e-06, No Iterations 95
time step continuity errors : sum local = 1.89383e-09, global = -1.92403e-19, cumulative = 7.39879e-20
DICPCG:  Solving for p, Initial residual = 0.000113055, Final residual = 9.24111e-07, No Iterations 121
time step continuity errors : sum local = 3.36499e-10, global = -1.59899e-19, cumulative = -8.59108e-20
ExecutionTime = 11.46 s  ClockTime = 11 s

Time = 0.099

Courant Number mean: 0.223582 max: 0.97019
smoothSolver:  Solving for Ux, Initial residual = 2.8408e-05, Final residual = 9.84619e-07, No Iterations 33
smoothSolver:  Solving for Uy, Initial residual = 8.09958e-05, Final residual = 9.1284e-07, No Iterations 44
DICPCG:  Solving for p, Initial residual = 9.9986e-05, Final residual = 4.44139e-06, No Iterations 108
time step continuity errors : sum local = 1.6225e-09, global = 1.01463e-19, cumulative = 1.55527e-20
DICPCG:  Solving for p, Initial residual = 9.57665e-05, Final residual = 8.52531e-07, No Iterations 117
time step continuity errors : sum local = 3.11129e-10, global = -6.17917e-20, cumulative = -4.6239e-20
ExecutionTime = 11.55 s  ClockTime = 12 s

Time = 0.1

Courant Number mean: 0.223606 max: 0.970193
smoothSolver:  Solving for Ux, Initial residual = 2.69186e-05, Final residual = 9.34941e-07, No Iterations 33
smoothSolver:  Solving for Uy, Initial residual = 7.69864e-05, Final residual = 9.62783e-07, No Iterations 43
DICPCG:  Solving for p, Initial residual = 9.28993e-05, Final residual = 4.24888e-06, No Iterations 95
time step continuity errors : sum local = 1.55742e-09, global = 4.81698e-20, cumulative = 1.93074e-21
DICPCG:  Solving for p, Initial residual = 8.88418e-05, Final residual = 9.96435e-07, No Iterations 112
time step continuity errors : sum local = 3.64309e-10, global = 1.16911e-19, cumulative = 1.18842e-19
ExecutionTime = 11.69 s  ClockTime = 12 s

Time = 0.101

Courant Number mean: 0.223629 max: 0.970195
smoothSolver:  Solving for Ux, Initial residual = 2.56358e-05, Final residual = 9.8603e-07, No Iterations 32
smoothSolver:  Solving for Uy, Initial residual = 7.28926e-05, Final residual = 9.12595e-07, No Iterations 43
DICPCG:  Solving for p, Initial residual = 9.17821e-05, Final residual = 4.0407e-06, No Iterations 50
time step continuity errors : sum local = 1.63251e-09, global = -1.87505e-20, cumulative = 1.00091e-19
DICPCG:  Solving for p, Initial residual = 8.8651e-05, Final residual = 9.93337e-07, No Iterations 76
time step continuity errors : sum local = 4.20611e-10, global = 1.90591e-19, cumulative = 2.90682e-19
ExecutionTime = 11.78 s  ClockTime = 12 s

Time = 0.102

Courant Number mean: 0.22365 max: 0.970197
[...]
DICPCG:  Solving for p, Initial residual = 1.00552e-06, Final residual = 3.84148e-07, No Iterations 1
time step continuity errors : sum local = 1.51466e-10, global = 5.52049e-20, cumulative = -3.4421e-18
ExecutionTime = 22.9 s  ClockTime = 23 s

Time = 0.474

Courant Number mean: 0.224058 max: 0.970232
smoothSolver:  Solving for Ux, Initial residual = 2.50778e-07, Final residual = 2.50778e-07, No Iterations 0
smoothSolver:  Solving for Uy, Initial residual = 6.45573e-07, Final residual = 6.45573e-07, No Iterations 0
DICPCG:  Solving for p, Initial residual = 7.65696e-07, Final residual = 7.65696e-07, No Iterations 0
time step continuity errors : sum local = 2.90359e-10, global = 1.27467e-19, cumulative = -3.31464e-18
DICPCG:  Solving for p, Initial residual = 1.01126e-06, Final residual = 3.89245e-07, No Iterations 1
time step continuity errors : sum local = 1.53339e-10, global = -1.97276e-19, cumulative = -3.51191e-18
ExecutionTime = 22.93 s  ClockTime = 23 s

Time = 0.475

Courant Number mean: 0.224058 max: 0.970232
smoothSolver:  Solving for Ux, Initial residual = 2.49968e-07, Final residual = 2.49968e-07, No Iterations 0
smoothSolver:  Solving for Uy, Initial residual = 6.43435e-07, Final residual = 6.43435e-07, No Iterations 0
DICPCG:  Solving for p, Initial residual = 6.99814e-07, Final residual = 6.99814e-07, No Iterations 0
time step continuity errors : sum local = 2.66394e-10, global = 2.31014e-19, cumulative = -3.2809e-18
DICPCG:  Solving for p, Initial residual = 9.00914e-07, Final residual = 9.00914e-07, No Iterations 0
time step continuity errors : sum local = 3.39599e-10, global = 2.62342e-19, cumulative = -3.01856e-18
ExecutionTime = 22.94 s  ClockTime = 23 s

Time = 0.476

Courant Number mean: 0.224058 max: 0.970232
smoothSolver:  Solving for Ux, Initial residual = 2.49264e-07, Final residual = 2.49264e-07, No Iterations 0
smoothSolver:  Solving for Uy, Initial residual = 6.41365e-07, Final residual = 6.41365e-07, No Iterations 0
DICPCG:  Solving for p, Initial residual = 1.03561e-06, Final residual = 4.016e-07, No Iterations 1
time step continuity errors : sum local = 1.57861e-10, global = -1.06814e-19, cumulative = -3.12537e-18
DICPCG:  Solving for p, Initial residual = 7.82816e-07, Final residual = 7.82816e-07, No Iterations 0
time step continuity errors : sum local = 2.96634e-10, global = -8.0739e-20, cumulative = -3.20611e-18
ExecutionTime = 22.95 s  ClockTime = 23 s

Time = 0.477

Courant Number mean: 0.224058 max: 0.970232
smoothSolver:  Solving for Ux, Initial residual = 2.48682e-07, Final residual = 2.48682e-07, No Iterations 0
smoothSolver:  Solving for Uy, Initial residual = 6.39997e-07, Final residual = 6.39997e-07, No Iterations 0
DICPCG:  Solving for p, Initial residual = 1.05711e-06, Final residual = 4.11529e-07, No Iterations 1
time step continuity errors : sum local = 1.61501e-10, global = -2.8922e-19, cumulative = -3.49533e-18
DICPCG:  Solving for p, Initial residual = 7.22685e-07, Final residual = 7.22685e-07, No Iterations 0
time step continuity errors : sum local = 2.7477e-10, global = -1.989e-20, cumulative = -3.51522e-18
ExecutionTime = 22.96 s  ClockTime = 23 s

Time = 0.478

Courant Number mean: 0.224058 max: 0.970232
smoothSolver:  Solving for Ux, Initial residual = 2.47947e-07, Final residual = 2.47947e-07, No Iterations 0
smoothSolver:  Solving for Uy, Initial residual = 6.38192e-07, Final residual = 6.38192e-07, No Iterations 0
DICPCG:  Solving for p, Initial residual = 9.48777e-07, Final residual = 9.48777e-07, No Iterations 0
time step continuity errors : sum local = 3.57073e-10, global = 2.85231e-20, cumulative = -3.4867e-18
DICPCG:  Solving for p, Initial residual = 1.08466e-06, Final residual = 4.3573e-07, No Iterations 1
time step continuity errors : sum local = 1.70343e-10, global = -2.56049e-19, cumulative = -3.74275e-18
ExecutionTime = 22.97 s  ClockTime = 23 s

Time = 0.479

Courant Number mean: 0.224058 max: 0.970232
smoothSolver:  Solving for Ux, Initial residual = 2.47535e-07, Final residual = 2.47535e-07, No Iterations 0
smoothSolver:  Solving for Uy, Initial residual = 6.37464e-07, Final residual = 6.37464e-07, No Iterations 0
DICPCG:  Solving for p, Initial residual = 8.53857e-07, Final residual = 8.53857e-07, No Iterations 0
time step continuity errors : sum local = 3.22554e-10, global = -1.67668e-19, cumulative = -3.91041e-18
DICPCG:  Solving for p, Initial residual = 1.12336e-06, Final residual = 4.5051e-07, No Iterations 1
time step continuity errors : sum local = 1.75756e-10, global = 7.83074e-20, cumulative = -3.83211e-18
ExecutionTime = 22.98 s  ClockTime = 23 s

Time = 0.48

Courant Number mean: 0.224058 max: 0.970232
smoothSolver:  Solving for Ux, Initial residual = 2.46813e-07, Final residual = 2.46813e-07, No Iterations 0
smoothSolver:  Solving for Uy, Initial residual = 6.35637e-07, Final residual = 6.35637e-07, No Iterations 0
DICPCG:  Solving for p, Initial residual = 7.98928e-07, Final residual = 7.98928e-07, No Iterations 0
time step continuity errors : sum local = 3.0259e-10, global = 6.20362e-20, cumulative = -3.77007e-18
DICPCG:  Solving for p, Initial residual = 1.02656e-06, Final residual = 4.94312e-07, No Iterations 1
time step continuity errors : sum local = 1.91739e-10, global = 1.7491e-19, cumulative = -3.59516e-18
ExecutionTime = 22.99 s  ClockTime = 23 s

Time = 0.481

Courant Number mean: 0.224058 max: 0.970232
smoothSolver:  Solving for Ux, Initial residual = 2.46149e-07, Final residual = 2.46149e-07, No Iterations 0
smoothSolver:  Solving for Uy, Initial residual = 6.34144e-07, Final residual = 6.34144e-07, No Iterations 0
DICPCG:  Solving for p, Initial residual = 8.46921e-07, Final residual = 8.46921e-07, No Iterations 0
time step continuity errors : sum local = 3.201e-10, global = -3.69281e-20, cumulative = -3.63209e-18
DICPCG:  Solving for p, Initial residual = 1.07246e-06, Final residual = 5.092e-07, No Iterations 1
time step continuity errors : sum local = 1.97198e-10, global = -1.55337e-19, cumulative = -3.78742e-18
ExecutionTime = 23 s  ClockTime = 23 s

Time = 0.482

Courant Number mean: 0.224058 max: 0.970232
smoothSolver:  Solving for Ux, Initial residual = 2.45566e-07, Final residual = 2.45566e-07, No Iterations 0
smoothSolver:  Solving for Uy, Initial residual = 6.32844e-07, Final residual = 6.32844e-07, No Iterations 0
DICPCG:  Solving for p, Initial residual = 8.79227e-07, Final residual = 8.79227e-07, No Iterations 0
time step continuity errors : sum local = 3.319e-10, global = -1.70884e-19, cumulative = -3.95831e-18
DICPCG:  Solving for p, Initial residual = 1.11883e-06, Final residual = 5.24107e-07, No Iterations 1
time step continuity errors : sum local = 2.02668e-10, global = 3.06163e-19, cumulative = -3.65214e-18
ExecutionTime = 23.01 s  ClockTime = 23 s

Time = 0.483

Courant Number mean: 0.224058 max: 0.970232
smoothSolver:  Solving for Ux, Initial residual = 2.44954e-07, Final residual = 2.44954e-07, No Iterations 0
smoothSolver:  Solving for Uy, Initial residual = 6.31541e-07, Final residual = 6.31541e-07, No Iterations 0
DICPCG:  Solving for p, Initial residual = 9.05382e-07, Final residual = 9.05382e-07, No Iterations 0
time step continuity errors : sum local = 3.41465e-10, global = 4.17909e-20, cumulative = -3.61035e-18
DICPCG:  Solving for p, Initial residual = 1.15192e-06, Final residual = 5.41089e-07, No Iterations 1
time step continuity errors : sum local = 2.08894e-10, global = -1.17125e-20, cumulative = -3.62207e-18
ExecutionTime = 23.02 s  ClockTime = 23 s

Time = 0.484

Courant Number mean: 0.224058 max: 0.970232
smoothSolver:  Solving for Ux, Initial residual = 2.44381e-07, Final residual = 2.44381e-07, No Iterations 0
smoothSolver:  Solving for Uy, Initial residual = 6.30307e-07, Final residual = 6.30307e-07, No Iterations 0
DICPCG:  Solving for p, Initial residual = 9.29606e-07, Final residual = 9.29606e-07, No Iterations 0
time step continuity errors : sum local = 3.50327e-10, global = 2.94847e-20, cumulative = -3.59258e-18
DICPCG:  Solving for p, Initial residual = 1.18365e-06, Final residual = 5.56129e-07, No Iterations 1
time step continuity errors : sum local = 2.14416e-10, global = -2.61518e-20, cumulative = -3.61873e-18
ExecutionTime = 23.03 s  ClockTime = 23 s

Time = 0.485

Courant Number mean: 0.224058 max: 0.970232
smoothSolver:  Solving for Ux, Initial residual = 2.43788e-07, Final residual = 2.43788e-07, No Iterations 0
smoothSolver:  Solving for Uy, Initial residual = 6.29093e-07, Final residual = 6.29093e-07, No Iterations 0
DICPCG:  Solving for p, Initial residual = 9.5678e-07, Final residual = 9.5678e-07, No Iterations 0
time step continuity errors : sum local = 3.60266e-10, global = 1.32299e-19, cumulative = -3.48643e-18
DICPCG:  Solving for p, Initial residual = 1.21741e-06, Final residual = 5.69229e-07, No Iterations 1
time step continuity errors : sum local = 2.19233e-10, global = 3.90137e-20, cumulative = -3.44742e-18
ExecutionTime = 23.04 s  ClockTime = 23 s

Time = 0.486

Courant Number mean: 0.224058 max: 0.970232
smoothSolver:  Solving for Ux, Initial residual = 2.43221e-07, Final residual = 2.43221e-07, No Iterations 0
smoothSolver:  Solving for Uy, Initial residual = 6.27935e-07, Final residual = 6.27935e-07, No Iterations 0
DICPCG:  Solving for p, Initial residual = 9.76405e-07, Final residual = 9.76405e-07, No Iterations 0
time step continuity errors : sum local = 3.67458e-10, global = -1.55531e-19, cumulative = -3.60295e-18
DICPCG:  Solving for p, Initial residual = 1.24438e-06, Final residual = 5.80156e-07, No Iterations 1
time step continuity errors : sum local = 2.2326e-10, global = -9.39061e-20, cumulative = -3.69686e-18
ExecutionTime = 23.05 s  ClockTime = 23 s

Time = 0.487

Courant Number mean: 0.224058 max: 0.970232
smoothSolver:  Solving for Ux, Initial residual = 2.42635e-07, Final residual = 2.42635e-07, No Iterations 0
smoothSolver:  Solving for Uy, Initial residual = 6.26767e-07, Final residual = 6.26767e-07, No Iterations 0
DICPCG:  Solving for p, Initial residual = 9.97881e-07, Final residual = 9.97881e-07, No Iterations 0
time step continuity errors : sum local = 3.75325e-10, global = 1.02041e-19, cumulative = -3.59482e-18
DICPCG:  Solving for p, Initial residual = 1.27111e-06, Final residual = 5.89416e-07, No Iterations 1
time step continuity errors : sum local = 2.2668e-10, global = -1.22363e-19, cumulative = -3.71718e-18
ExecutionTime = 23.07 s  ClockTime = 23 s

Time = 0.488

Courant Number mean: 0.224058 max: 0.970232
smoothSolver:  Solving for Ux, Initial residual = 2.42058e-07, Final residual = 2.42058e-07, No Iterations 0
smoothSolver:  Solving for Uy, Initial residual = 6.25637e-07, Final residual = 6.25637e-07, No Iterations 0
DICPCG:  Solving for p, Initial residual = 1.01067e-06, Final residual = 6.7086e-07, No Iterations 1
time step continuity errors : sum local = 2.56378e-10, global = 1.03274e-19, cumulative = -3.61391e-18
DICPCG:  Solving for p, Initial residual = 9.2237e-07, Final residual = 9.2237e-07, No Iterations 0
time step continuity errors : sum local = 3.47939e-10, global = -2.4575e-19, cumulative = -3.85966e-18
ExecutionTime = 23.08 s  ClockTime = 23 s

Time = 0.489

Courant Number mean: 0.224058 max: 0.970232
smoothSolver:  Solving for Ux, Initial residual = 2.41197e-07, Final residual = 2.41197e-07, No Iterations 0
smoothSolver:  Solving for Uy, Initial residual = 6.23619e-07, Final residual = 6.23619e-07, No Iterations 0
DICPCG:  Solving for p, Initial residual = 1.09927e-06, Final residual = 6.45179e-07, No Iterations 1
time step continuity errors : sum local = 2.47086e-10, global = 4.81594e-20, cumulative = -3.8115e-18
DICPCG:  Solving for p, Initial residual = 1.07688e-06, Final residual = 6.51019e-07, No Iterations 1
time step continuity errors : sum local = 2.49265e-10, global = 4.22764e-20, cumulative = -3.76922e-18
ExecutionTime = 23.09 s  ClockTime = 23 s

Time = 0.49

Courant Number mean: 0.224058 max: 0.970232
smoothSolver:  Solving for Ux, Initial residual = 2.40566e-07, Final residual = 2.40566e-07, No Iterations 0
smoothSolver:  Solving for Uy, Initial residual = 6.22967e-07, Final residual = 6.22967e-07, No Iterations 0
DICPCG:  Solving for p, Initial residual = 9.08299e-07, Final residual = 9.08299e-07, No Iterations 0
time step continuity errors : sum local = 3.42924e-10, global = 1.60256e-19, cumulative = -3.60896e-18
DICPCG:  Solving for p, Initial residual = 1.07192e-06, Final residual = 6.50984e-07, No Iterations 1
time step continuity errors : sum local = 2.49308e-10, global = -1.23892e-19, cumulative = -3.73286e-18
ExecutionTime = 23.1 s  ClockTime = 23 s

Time = 0.491

Courant Number mean: 0.224059 max: 0.970232
smoothSolver:  Solving for Ux, Initial residual = 2.40142e-07, Final residual = 2.40142e-07, No Iterations 0
smoothSolver:  Solving for Uy, Initial residual = 6.22476e-07, Final residual = 6.22476e-07, No Iterations 0
DICPCG:  Solving for p, Initial residual = 1.09534e-06, Final residual = 6.3573e-07, No Iterations 1
time step continuity errors : sum local = 2.43809e-10, global = -2.22356e-20, cumulative = -3.75509e-18
DICPCG:  Solving for p, Initial residual = 8.93008e-07, Final residual = 8.93008e-07, No Iterations 0
time step continuity errors : sum local = 3.37467e-10, global = -2.62779e-19, cumulative = -4.01787e-18
ExecutionTime = 23.11 s  ClockTime = 23 s

Time = 0.492

Courant Number mean: 0.224059 max: 0.970232
smoothSolver:  Solving for Ux, Initial residual = 2.39292e-07, Final residual = 2.39292e-07, No Iterations 0
smoothSolver:  Solving for Uy, Initial residual = 6.20401e-07, Final residual = 6.20401e-07, No Iterations 0
DICPCG:  Solving for p, Initial residual = 1.07727e-06, Final residual = 6.30412e-07, No Iterations 1
time step continuity errors : sum local = 2.41928e-10, global = 2.431e-19, cumulative = -3.77477e-18
DICPCG:  Solving for p, Initial residual = 1.04217e-06, Final residual = 6.30525e-07, No Iterations 1
time step continuity errors : sum local = 2.42023e-10, global = 1.30146e-19, cumulative = -3.64462e-18
ExecutionTime = 23.12 s  ClockTime = 23 s

Time = 0.493

Courant Number mean: 0.224059 max: 0.970232
smoothSolver:  Solving for Ux, Initial residual = 2.38588e-07, Final residual = 2.38588e-07, No Iterations 0
smoothSolver:  Solving for Uy, Initial residual = 6.19576e-07, Final residual = 6.19576e-07, No Iterations 0
DICPCG:  Solving for p, Initial residual = 8.79345e-07, Final residual = 8.79345e-07, No Iterations 0
time step continuity errors : sum local = 3.32602e-10, global = 1.53459e-19, cumulative = -3.49116e-18
DICPCG:  Solving for p, Initial residual = 1.03706e-06, Final residual = 6.11283e-07, No Iterations 1
time step continuity errors : sum local = 2.35073e-10, global = 6.1864e-20, cumulative = -3.4293e-18
ExecutionTime = 23.13 s  ClockTime = 23 s

Time = 0.494

Courant Number mean: 0.224059 max: 0.970232
smoothSolver:  Solving for Ux, Initial residual = 2.38109e-07, Final residual = 2.38109e-07, No Iterations 0
smoothSolver:  Solving for Uy, Initial residual = 6.18937e-07, Final residual = 6.18937e-07, No Iterations 0
DICPCG:  Solving for p, Initial residual = 1.03162e-06, Final residual = 5.96697e-07, No Iterations 1
time step continuity errors : sum local = 2.29815e-10, global = -1.91149e-19, cumulative = -3.62045e-18
DICPCG:  Solving for p, Initial residual = 8.3275e-07, Final residual = 8.3275e-07, No Iterations 0
time step continuity errors : sum local = 3.15746e-10, global = -9.95011e-20, cumulative = -3.71995e-18
ExecutionTime = 23.14 s  ClockTime = 23 s

Time = 0.495

Courant Number mean: 0.224059 max: 0.970232
smoothSolver:  Solving for Ux, Initial residual = 2.37242e-07, Final residual = 2.37242e-07, No Iterations 0
smoothSolver:  Solving for Uy, Initial residual = 6.16812e-07, Final residual = 6.16812e-07, No Iterations 0
DICPCG:  Solving for p, Initial residual = 1.00156e-06, Final residual = 5.77313e-07, No Iterations 1
time step continuity errors : sum local = 2.22811e-10, global = -2.40336e-19, cumulative = -3.96029e-18
DICPCG:  Solving for p, Initial residual = 9.55803e-07, Final residual = 9.55803e-07, No Iterations 0
time step continuity errors : sum local = 3.606e-10, global = -2.34652e-19, cumulative = -4.19494e-18
ExecutionTime = 23.15 s  ClockTime = 23 s

Time = 0.496

Courant Number mean: 0.224059 max: 0.970232
smoothSolver:  Solving for Ux, Initial residual = 2.36645e-07, Final residual = 2.36645e-07, No Iterations 0
smoothSolver:  Solving for Uy, Initial residual = 6.15744e-07, Final residual = 6.15744e-07, No Iterations 0
DICPCG:  Solving for p, Initial residual = 1.22993e-06, Final residual = 4.96842e-07, No Iterations 1
time step continuity errors : sum local = 1.93569e-10, global = 1.53606e-20, cumulative = -4.17958e-18
DICPCG:  Solving for p, Initial residual = 8.64431e-07, Final residual = 8.64431e-07, No Iterations 0
time step continuity errors : sum local = 3.27383e-10, global = 1.47444e-20, cumulative = -4.16483e-18
ExecutionTime = 23.16 s  ClockTime = 23 s

Time = 0.497

Courant Number mean: 0.224059 max: 0.970232
smoothSolver:  Solving for Ux, Initial residual = 2.36001e-07, Final residual = 2.36001e-07, No Iterations 0
smoothSolver:  Solving for Uy, Initial residual = 6.14419e-07, Final residual = 6.14419e-07, No Iterations 0
DICPCG:  Solving for p, Initial residual = 1.13944e-06, Final residual = 4.82774e-07, No Iterations 1
time step continuity errors : sum local = 1.88493e-10, global = -1.58669e-20, cumulative = -4.1807e-18
DICPCG:  Solving for p, Initial residual = 8.14062e-07, Final residual = 8.14062e-07, No Iterations 0
time step continuity errors : sum local = 3.09093e-10, global = 8.9762e-21, cumulative = -4.17172e-18
ExecutionTime = 23.17 s  ClockTime = 23 s

Time = 0.498

Courant Number mean: 0.224059 max: 0.970232
smoothSolver:  Solving for Ux, Initial residual = 2.35315e-07, Final residual = 2.35315e-07, No Iterations 0
smoothSolver:  Solving for Uy, Initial residual = 6.12978e-07, Final residual = 6.12978e-07, No Iterations 0
DICPCG:  Solving for p, Initial residual = 1.06449e-06, Final residual = 4.6461e-07, No Iterations 1
time step continuity errors : sum local = 1.81926e-10, global = 2.39382e-19, cumulative = -3.93234e-18
DICPCG:  Solving for p, Initial residual = 7.86703e-07, Final residual = 7.86703e-07, No Iterations 0
time step continuity errors : sum local = 2.99178e-10, global = 2.9542e-19, cumulative = -3.63692e-18
ExecutionTime = 23.18 s  ClockTime = 23 s

Time = 0.499

Courant Number mean: 0.224059 max: 0.970232
smoothSolver:  Solving for Ux, Initial residual = 2.34623e-07, Final residual = 2.34623e-07, No Iterations 0
smoothSolver:  Solving for Uy, Initial residual = 6.11563e-07, Final residual = 6.11563e-07, No Iterations 0
DICPCG:  Solving for p, Initial residual = 1.02421e-06, Final residual = 4.40039e-07, No Iterations 1
time step continuity errors : sum local = 1.73024e-10, global = 6.08329e-20, cumulative = -3.57609e-18
DICPCG:  Solving for p, Initial residual = 7.47614e-07, Final residual = 7.47614e-07, No Iterations 0
time step continuity errors : sum local = 2.84991e-10, global = -1.27576e-19, cumulative = -3.70367e-18
ExecutionTime = 23.19 s  ClockTime = 23 s

Time = 0.5

Courant Number mean: 0.224059 max: 0.970232
smoothSolver:  Solving for Ux, Initial residual = 2.33922e-07, Final residual = 2.33922e-07, No Iterations 0
smoothSolver:  Solving for Uy, Initial residual = 6.1011e-07, Final residual = 6.1011e-07, No Iterations 0
DICPCG:  Solving for p, Initial residual = 9.77799e-07, Final residual = 9.77799e-07, No Iterations 0
time step continuity errors : sum local = 3.68784e-10, global = -7.55519e-20, cumulative = -3.77922e-18
DICPCG:  Solving for p, Initial residual = 1.11451e-06, Final residual = 3.83103e-07, No Iterations 1
time step continuity errors : sum local = 1.52341e-10, global = -1.53681e-19, cumulative = -3.9329e-18
ExecutionTime = 23.24 s  ClockTime = 23 s

End

