/*---------------------------------------------------------------------------*\
  =========                 |
  \\      /  F ield         | OpenFOAM: The Open Source CFD Toolbox
   \\    /   O peration     | Website:  https://openfoam.org
    \\  /    A nd           | Version:  7
     \\/     M anipulation  |
\*---------------------------------------------------------------------------*/
Build  : 7-7dc73e32f723
Exec   : blockMesh
Date   : Nov 24 2020
Time   : 11:58:03
Host   : "DESKTOP-VSJ4QNK"
PID    : 44540
I/O    : uncollated
Case   : /home/anoldfriend/OpenFOAM/anoldfriend-7/applications/test/compressible/poiseuilleFlow
nProcs : 1
sigFpe : Enabling floating point exception trapping (FOAM_SIGFPE).
fileModificationChecking : Monitoring run-time modified files using timeStampMaster (fileModificationSkew 10)
allowSystemOperations : Allowing user-supplied system call operations

// * * * * * * * * * * * * * * * * * * * * * * * * * * * * * * * * * * * * * //
Create time

Deleting polyMesh directory
    "/home/anoldfriend/OpenFOAM/anoldfriend-7/applications/test/compressible/poiseuilleFlow/constant/polyMesh"
Creating block mesh from
    "/home/anoldfriend/OpenFOAM/anoldfriend-7/applications/test/compressible/poiseuilleFlow/system/blockMeshDict"
Creating block edges
No non-planar block faces defined
Creating topology blocks
Creating topology patches

Creating block mesh topology

Check topology

	Basic statistics
		Number of internal faces : 0
		Number of boundary faces : 6
		Number of defined boundary faces : 6
		Number of undefined boundary faces : 0
	Checking patch -> block consistency

Creating block offsets
Creating merge list .

Creating polyMesh from blockMesh
Creating patches
Creating cells
Creating points with scale 0.1
    Block 0 cell size :
        i : 0.005 .. 0.005
        j : 0.00230395 .. 0.00230395
        k : 0.01

Detected cyclic patches; ordering boundary faces

Writing polyMesh
----------------
Mesh Information
----------------
  boundingBox: (0 0 0) (0.5 0.1 0.01)
  nPoints: 6262
  nCells: 3000
  nFaces: 12130
  nInternalFaces: 5870
----------------
Patches
----------------
  patch 0 (start: 5870 size: 30) name: velocity-inlet
  patch 1 (start: 5900 size: 30) name: velocity-outlet
  patch 2 (start: 5930 size: 200) name: fixedWalls
  patch 3 (start: 6130 size: 6000) name: frontAndBack

End

/*---------------------------------------------------------------------------*\
  =========                 |
  \\      /  F ield         | OpenFOAM: The Open Source CFD Toolbox
   \\    /   O peration     | Website:  https://openfoam.org
    \\  /    A nd           | Version:  7
     \\/     M anipulation  |
\*---------------------------------------------------------------------------*/
Build  : 7-7dc73e32f723
Exec   : checkMesh
Date   : Nov 24 2020
Time   : 11:58:03
Host   : "DESKTOP-VSJ4QNK"
PID    : 44542
I/O    : uncollated
Case   : /home/anoldfriend/OpenFOAM/anoldfriend-7/applications/test/compressible/poiseuilleFlow
nProcs : 1
sigFpe : Enabling floating point exception trapping (FOAM_SIGFPE).
fileModificationChecking : Monitoring run-time modified files using timeStampMaster (fileModificationSkew 10)
allowSystemOperations : Allowing user-supplied system call operations

// * * * * * * * * * * * * * * * * * * * * * * * * * * * * * * * * * * * * * //
Create time

Create polyMesh for time = 0

Time = 0

Mesh stats
    points:           6262
    internal points:  0
    faces:            12130
    internal faces:   5870
    cells:            3000
    faces per cell:   6
    boundary patches: 4
    point zones:      0
    face zones:       0
    cell zones:       0

Overall number of cells of each type:
    hexahedra:     3000
    prisms:        0
    wedges:        0
    pyramids:      0
    tet wedges:    0
    tetrahedra:    0
    polyhedra:     0

Checking topology...
    Boundary definition OK.
    Cell to face addressing OK.
    Point usage OK.
    Upper triangular ordering OK.
    Face vertices OK.
    Number of regions: 1 (OK).

Checking patch topology for multiply connected surfaces...
    Patch               Faces    Points   Surface topology                  
    velocity-inlet      30       62       ok (non-closed singly connected)  
    velocity-outlet     30       62       ok (non-closed singly connected)  
    fixedWalls          200      404      ok (non-closed singly connected)  
    frontAndBack        6000     6262     ok (non-closed singly connected)  

Checking geometry...
    Overall domain bounding box (0 0 0) (0.5 0.1 0.01)
    Mesh has 2 geometric (non-empty/wedge) directions (1 1 0)
    Mesh has 2 solution (non-empty) directions (1 1 0)
    All edges aligned with or perpendicular to non-empty directions.
    Boundary openness (-4.99144e-18 6.59476e-18 7.64296e-17) OK.
    Max cell openness = 2.18527e-16 OK.
    Max aspect ratio = 2.17019 OK.
    Minimum face area = 1.15198e-05. Maximum face area = 5e-05.  Face area magnitudes OK.
    Min volume = 1.15198e-07. Max volume = 2.30395e-07.  Total volume = 0.0005.  Cell volumes OK.
    Mesh non-orthogonality Max: 0 average: 0
    Non-orthogonality check OK.
    Face pyramids OK.
    Max skewness = 8.88178e-14 OK.
    Coupled point location match (average 1.30104e-18) OK.

Mesh OK.

End

/*---------------------------------------------------------------------------*\
  =========                 |
  \\      /  F ield         | OpenFOAM: The Open Source CFD Toolbox
   \\    /   O peration     | Website:  https://openfoam.org
    \\  /    A nd           | Version:  7
     \\/     M anipulation  |
\*---------------------------------------------------------------------------*/
Build  : 7-7dc73e32f723
Exec   : buoyantPimpleFoam
Date   : Nov 24 2020
Time   : 11:58:03
Host   : "DESKTOP-VSJ4QNK"
PID    : 44544
I/O    : uncollated
Case   : /home/anoldfriend/OpenFOAM/anoldfriend-7/applications/test/compressible/poiseuilleFlow
nProcs : 1
sigFpe : Enabling floating point exception trapping (FOAM_SIGFPE).
fileModificationChecking : Monitoring run-time modified files using timeStampMaster (fileModificationSkew 10)
allowSystemOperations : Allowing user-supplied system call operations

// * * * * * * * * * * * * * * * * * * * * * * * * * * * * * * * * * * * * * //
Create time

Create mesh for time = 0


PIMPLE: No convergence criteria found


PIMPLE: Operating solver in transient mode with 1 outer corrector
PIMPLE: Operating solver in PISO mode


Reading thermophysical properties

Selecting thermodynamics package 
{
    type            heRhoThermo;
    mixture         pureMixture;
    transport       const;
    thermo          eConst;
    equationOfState Boussinesq;
    specie          specie;
    energy          sensibleInternalEnergy;
}

Reading field U

Reading/calculating face flux field phi

Creating turbulence model

Selecting turbulence model type laminar
Selecting laminar stress model Stokes

Reading g

Reading hRef
Calculating field g.h

Reading field p_rgh

Creating field dpdt

Creating field kinetic energy K

No MRF models present

Radiation model not active: radiationProperties not found
Selecting radiationModel none
No finite volume options present
Courant Number mean: 0 max: 0

Starting time loop

--> FOAM Warning : 
    From function void Foam::particle::locate(const vector&, Foam::label, bool, Foam::string)
    in file particle/particle.C at line 495
    Particle initialised with a location outside of the mesh.
Reading set description:
    line

Courant Number mean: 0 max: 0
Time = 0.005

diagonal:  Solving for rho, Initial residual = 0, Final residual = 0, No Iterations 0
DILUPBiCGStab:  Solving for e, Initial residual = 0.554633, Final residual = 5.39394e-09, No Iterations 4
GAMG:  Solving for p_rgh, Initial residual = 0.961787, Final residual = 0.00283502, No Iterations 1
diagonal:  Solving for rho, Initial residual = 0, Final residual = 0, No Iterations 0
time step continuity errors : sum local = 1.75312e-08, global = 4.17284e-17, cumulative = 4.17284e-17
GAMG:  Solving for p_rgh, Initial residual = 0.499684, Final residual = 8.89574e-09, No Iterations 18
diagonal:  Solving for rho, Initial residual = 0, Final residual = 0, No Iterations 0
time step continuity errors : sum local = 5.32999e-16, global = 4.52798e-17, cumulative = 8.70081e-17
ExecutionTime = 0.12 s  ClockTime = 0 s

Courant Number mean: 1.25117e-08 max: 8.50577e-07
Time = 0.01

diagonal:  Solving for rho, Initial residual = 0, Final residual = 0, No Iterations 0
DILUPBiCGStab:  Solving for e, Initial residual = 0.41247, Final residual = 2.29576e-09, No Iterations 4
GAMG:  Solving for p_rgh, Initial residual = 0.432977, Final residual = 0.00406527, No Iterations 4
diagonal:  Solving for rho, Initial residual = 0, Final residual = 0, No Iterations 0
time step continuity errors : sum local = 1.42004e-10, global = -3.24268e-17, cumulative = 5.45814e-17
GAMG:  Solving for p_rgh, Initial residual = 0.24561, Final residual = 3.7277e-09, No Iterations 16
diagonal:  Solving for rho, Initial residual = 0, Final residual = 0, No Iterations 0
time step continuity errors : sum local = 4.69806e-17, global = -2.53195e-17, cumulative = 2.92619e-17
ExecutionTime = 0.14 s  ClockTime = 0 s

Courant Number mean: 9.95482e-09 max: 2.91752e-07
Time = 0.015

diagonal:  Solving for rho, Initial residual = 0, Final residual = 0, No Iterations 0
DILUPBiCGStab:  Solving for e, Initial residual = 0.370686, Final residual = 3.51411e-09, No Iterations 4
GAMG:  Solving for p_rgh, Initial residual = 0.385154, Final residual = 0.00111855, No Iterations 5
diagonal:  Solving for rho, Initial residual = 0, Final residual = 0, No Iterations 0
time step continuity errors : sum local = 1.36682e-12, global = -1.00602e-18, cumulative = 2.82559e-17
GAMG:  Solving for p_rgh, Initial residual = 0.192384, Final residual = 6.42427e-09, No Iterations 13
diagonal:  Solving for rho, Initial residual = 0, Final residual = 0, No Iterations 0
time step continuity errors : sum local = 3.68645e-17, global = 1.69394e-18, cumulative = 2.99498e-17
ExecutionTime = 0.16 s  ClockTime = 0 s

Courant Number mean: 9.12368e-09 max: 1.46793e-07
Time = 0.02

diagonal:  Solving for rho, Initial residual = 0, Final residual = 0, No Iterations 0
DILUPBiCGStab:  Solving for e, Initial residual = 0.341898, Final residual = 3.28126e-09, No Iterations 4
GAMG:  Solving for p_rgh, Initial residual = 0.266054, Final residual = 0.00149823, No Iterations 4
diagonal:  Solving for rho, Initial residual = 0, Final residual = 0, No Iterations 0
time step continuity errors : sum local = 5.36652e-13, global = -1.12883e-17, cumulative = 1.86616e-17
GAMG:  Solving for p_rgh, Initial residual = 0.201588, Final residual = 7.68121e-09, No Iterations 15
diagonal:  Solving for rho, Initial residual = 0, Final residual = 0, No Iterations 0
time step continuity errors : sum local = 4.44376e-17, global = -9.66029e-18, cumulative = 9.00129e-18
ExecutionTime = 0.18 s  ClockTime = 0 s

Courant Number mean: 8.70302e-09 max: 8.52785e-08
Time = 0.025

diagonal:  Solving for rho, Initial residual = 0, Final residual = 0, No Iterations 0
DILUPBiCGStab:  Solving for e, Initial residual = 0.331455, Final residual = 2.92562e-09, No Iterations 4
GAMG:  Solving for p_rgh, Initial residual = 0.211567, Final residual = 0.00112145, No Iterations 4
diagonal:  Solving for rho, Initial residual = 0, Final residual = 0, No Iterations 0
time step continuity errors : sum local = 1.73446e-13, global = -2.03325e-18, cumulative = 6.96804e-18
GAMG:  Solving for p_rgh, Initial residual = 0.200974, Final residual = 4.30285e-09, No Iterations 14
diagonal:  Solving for rho, Initial residual = 0, Final residual = 0, No Iterations 0
time step continuity errors : sum local = 4.16222e-17, global = 2.95404e-19, cumulative = 7.26344e-18
ExecutionTime = 0.19 s  ClockTime = 0 s

Courant Number mean: 8.37279e-09 max: 5.41462e-08
Time = 0.03

diagonal:  Solving for rho, Initial residual = 0, Final residual = 0, No Iterations 0
DILUPBiCGStab:  Solving for e, Initial residual = 0.325465, Final residual = 2.7525e-09, No Iterations 4
GAMG:  Solving for p_rgh, Initial residual = 0.188278, Final residual = 0.00146307, No Iterations 4
diagonal:  Solving for rho, Initial residual = 0, Final residual = 0, No Iterations 0
time step continuity errors : sum local = 9.38364e-14, global = -5.40262e-18, cumulative = 1.86082e-18
GAMG:  Solving for p_rgh, Initial residual = 0.18619, Final residual = 6.40306e-09, No Iterations 13
diagonal:  Solving for rho, Initial residual = 0, Final residual = 0, No Iterations 0
time step continuity errors : sum local = 4.82131e-17, global = -2.91868e-18, cumulative = -1.05786e-18
ExecutionTime = 0.21 s  ClockTime = 1 s

Courant Number mean: 8.08382e-09 max: 3.95727e-08
Time = 0.035

diagonal:  Solving for rho, Initial residual = 0, Final residual = 0, No Iterations 0
DILUPBiCGStab:  Solving for e, Initial residual = 0.302155, Final residual = 2.67544e-09, No Iterations 4
GAMG:  Solving for p_rgh, Initial residual = 0.150654, Final residual = 0.000537973, No Iterations 4
diagonal:  Solving for rho, Initial residual = 0, Final residual = 0, No Iterations 0
time step continuity errors : sum local = 2.21278e-14, global = 1.80744e-18, cumulative = 7.4958e-19
GAMG:  Solving for p_rgh, Initial residual = 0.160698, Final residual = 1.19654e-09, No Iterations 14
diagonal:  Solving for rho, Initial residual = 0, Final residual = 0, No Iterations 0
time step continuity errors : sum local = 5.03841e-17, global = 3.86589e-18, cumulative = 4.61547e-18
ExecutionTime = 0.23 s  ClockTime = 1 s

Courant Number mean: 7.81912e-09 max: 3.5768e-08
Time = 0.04

diagonal:  Solving for rho, Initial residual = 0, Final residual = 0, No Iterations 0
DILUPBiCGStab:  Solving for e, Initial residual = 0.287011, Final residual = 2.52239e-09, No Iterations 4
GAMG:  Solving for p_rgh, Initial residual = 0.126222, Final residual = 0.000348099, No Iterations 5
diagonal:  Solving for rho, Initial residual = 0, Final residual = 0, No Iterations 0
time step continuity errors : sum local = 9.39525e-15, global = 8.37067e-19, cumulative = 5.45253e-18
GAMG:  Solving for p_rgh, Initial residual = 0.135228, Final residual = 7.53683e-09, No Iterations 14
diagonal:  Solving for rho, Initial residual = 0, Final residual = 0, No Iterations 0
time step continuity errors : sum local = 4.90778e-17, global = 2.318e-18, cumulative = 7.77053e-18
ExecutionTime = 0.25 s  ClockTime = 1 s

Courant Number mean: 7.57416e-09 max: 3.34123e-08
Time = 0.045

diagonal:  Solving for rho, Initial residual = 0, Final residual = 0, No Iterations 0
DILUPBiCGStab:  Solving for e, Initial residual = 0.288852, Final residual = 1.97759e-09, No Iterations 4
GAMG:  Solving for p_rgh, Initial residual = 0.12626, Final residual = 0.00103382, No Iterations 3
diagonal:  Solving for rho, Initial residual = 0, Final residual = 0, No Iterations 0
time step continuity errors : sum local = 1.54785e-14, global = 7.80705e-18, cumulative = 1.55776e-17
GAMG:  Solving for p_rgh, Initial residual = 0.121029, Final residual = 6.9089e-09, No Iterations 14
diagonal:  Solving for rho, Initial residual = 0, Final residual = 0, No Iterations 0
time step continuity errors : sum local = 5.41283e-17, global = 6.9537e-18, cumulative = 2.25313e-17
ExecutionTime = 0.27 s  ClockTime = 1 s

Courant Number mean: 7.34473e-09 max: 3.12496e-08
Time = 0.05

diagonal:  Solving for rho, Initial residual = 0, Final residual = 0, No Iterations 0
DILUPBiCGStab:  Solving for e, Initial residual = 0.281146, Final residual = 2.84346e-09, No Iterations 4
GAMG:  Solving for p_rgh, Initial residual = 0.110574, Final residual = 0.00100902, No Iterations 4
diagonal:  Solving for rho, Initial residual = 0, Final residual = 0, No Iterations 0
time step continuity errors : sum local = 1.21395e-14, global = -1.92486e-18, cumulative = 2.06064e-17
GAMG:  Solving for p_rgh, Initial residual = 0.111797, Final residual = 2.26649e-09, No Iterations 13
diagonal:  Solving for rho, Initial residual = 0, Final residual = 0, No Iterations 0
time step continuity errors : sum local = 5.66636e-17, global = -1.02574e-18, cumulative = 1.95807e-17
ExecutionTime = 0.28 s  ClockTime = 1 s

Courant Number mean: 7.12582e-09 max: 2.92973e-08
Time = 0.055

diagonal:  Solving for rho, Initial residual = 0, Final residual = 0, No Iterations 0
DILUPBiCGStab:  Solving for e, Initial residual = 0.285031, Final residual = 2.78354e-09, No Iterations 4
GAMG:  Solving for p_rgh, Initial residual = 0.0955501, Final residual = 0.000933803, No Iterations 3
diagonal:  Solving for rho, Initial residual = 0, Final residual = 0, No Iterations 0
time step continuity errors : sum local = 9.85163e-15, global = 2.36231e-18, cumulative = 2.1943e-17
GAMG:  Solving for p_rgh, Initial residual = 0.097918, Final residual = 9.90221e-09, No Iterations 13
diagonal:  Solving for rho, Initial residual = 0, Final residual = 0, No Iterations 0
time step continuity errors : sum local = 5.21428e-17, global = 2.10812e-18, cumulative = 2.40511e-17
ExecutionTime = 0.3 s  ClockTime = 1 s

Courant Number mean: 6.91695e-09 max: 2.75494e-08
Time = 0.06

diagonal:  Solving for rho, Initial residual = 0, Final residual = 0, No Iterations 0
DILUPBiCGStab:  Solving for e, Initial residual = 0.272004, Final residual = 2.93255e-09, No Iterations 4
GAMG:  Solving for p_rgh, Initial residual = 0.0886385, Final residual = 0.000411331, No Iterations 4
diagonal:  Solving for rho, Initial residual = 0, Final residual = 0, No Iterations 0
time step continuity errors : sum local = 4.39674e-15, global = 6.48611e-18, cumulative = 3.05372e-17
GAMG:  Solving for p_rgh, Initial residual = 0.0917628, Final residual = 8.80575e-09, No Iterations 13
diagonal:  Solving for rho, Initial residual = 0, Final residual = 0, No Iterations 0
time step continuity errors : sum local = 5.45045e-17, global = 1.40486e-18, cumulative = 3.19421e-17
ExecutionTime = 0.32 s  ClockTime = 1 s

Courant Number mean: 6.71647e-09 max: 2.59891e-08
Time = 0.065

diagonal:  Solving for rho, Initial residual = 0, Final residual = 0, No Iterations 0
DILUPBiCGStab:  Solving for e, Initial residual = 0.262645, Final residual = 2.01082e-09, No Iterations 4
GAMG:  Solving for p_rgh, Initial residual = 0.0847296, Final residual = 0.000581951, No Iterations 4
diagonal:  Solving for rho, Initial residual = 0, Final residual = 0, No Iterations 0
time step continuity errors : sum local = 5.48297e-15, global = 3.63211e-18, cumulative = 3.55742e-17
GAMG:  Solving for p_rgh, Initial residual = 0.0874746, Final residual = 2.73649e-09, No Iterations 14
diagonal:  Solving for rho, Initial residual = 0, Final residual = 0, No Iterations 0
time step continuity errors : sum local = 5.48012e-17, global = 4.55608e-18, cumulative = 4.01303e-17
ExecutionTime = 0.34 s  ClockTime = 1 s

Courant Number mean: 6.52346e-09 max: 2.45945e-08
Time = 0.07

diagonal:  Solving for rho, Initial residual = 0, Final residual = 0, No Iterations 0
DILUPBiCGStab:  Solving for e, Initial residual = 0.270237, Final residual = 2.92092e-09, No Iterations 4
GAMG:  Solving for p_rgh, Initial residual = 0.0817238, Final residual = 0.000677748, No Iterations 3
diagonal:  Solving for rho, Initial residual = 0, Final residual = 0, No Iterations 0
time step continuity errors : sum local = 8.1436e-15, global = 2.793e-18, cumulative = 4.29233e-17
GAMG:  Solving for p_rgh, Initial residual = 0.0839771, Final residual = 4.36594e-09, No Iterations 15
diagonal:  Solving for rho, Initial residual = 0, Final residual = 0, No Iterations 0
time step continuity errors : sum local = 5.62415e-17, global = 6.89427e-19, cumulative = 4.36127e-17
ExecutionTime = 0.36 s  ClockTime = 1 s

Courant Number mean: 6.3369e-09 max: 2.33436e-08
Time = 0.075

diagonal:  Solving for rho, Initial residual = 0, Final residual = 0, No Iterations 0
DILUPBiCGStab:  Solving for e, Initial residual = 0.252143, Final residual = 1.88424e-09, No Iterations 4
GAMG:  Solving for p_rgh, Initial residual = 0.0793477, Final residual = 0.000717314, No Iterations 3
diagonal:  Solving for rho, Initial residual = 0, Final residual = 0, No Iterations 0
time step continuity errors : sum local = 6.87538e-15, global = 1.2961e-20, cumulative = 4.36257e-17
GAMG:  Solving for p_rgh, Initial residual = 0.0817072, Final residual = 7.46382e-09, No Iterations 16
diagonal:  Solving for rho, Initial residual = 0, Final residual = 0, No Iterations 0
time step continuity errors : sum local = 5.65766e-17, global = -1.53131e-18, cumulative = 4.20943e-17
ExecutionTime = 0.38 s  ClockTime = 1 s

Courant Number mean: 6.15642e-09 max: 2.22162e-08
Time = 0.08

diagonal:  Solving for rho, Initial residual = 0, Final residual = 0, No Iterations 0
DILUPBiCGStab:  Solving for e, Initial residual = 0.251193, Final residual = 1.78414e-09, No Iterations 4
GAMG:  Solving for p_rgh, Initial residual = 0.0771743, Final residual = 0.000736731, No Iterations 3
diagonal:  Solving for rho, Initial residual = 0, Final residual = 0, No Iterations 0
time step continuity errors : sum local = 5.89065e-15, global = 3.43878e-18, cumulative = 4.55331e-17
GAMG:  Solving for p_rgh, Initial residual = 0.0797836, Final residual = 7.16221e-09, No Iterations 16
diagonal:  Solving for rho, Initial residual = 0, Final residual = 0, No Iterations 0
time step continuity errors : sum local = 5.96144e-17, global = -1.20525e-18, cumulative = 4.43279e-17
ExecutionTime = 0.39 s  ClockTime = 1 s

Courant Number mean: 5.98149e-09 max: 2.12508e-08
Time = 0.085

diagonal:  Solving for rho, Initial residual = 0, Final residual = 0, No Iterations 0
DILUPBiCGStab:  Solving for e, Initial residual = 0.248884, Final residual = 2.31122e-09, No Iterations 4
GAMG:  Solving for p_rgh, Initial residual = 0.0754548, Final residual = 0.000255304, No Iterations 4
diagonal:  Solving for rho, Initial residual = 0, Final residual = 0, No Iterations 0
time step continuity errors : sum local = 2.20314e-15, global = -3.25627e-19, cumulative = 4.40023e-17
GAMG:  Solving for p_rgh, Initial residual = 0.0785019, Final residual = 8.38916e-09, No Iterations 13
diagonal:  Solving for rho, Initial residual = 0, Final residual = 0, No Iterations 0
time step continuity errors : sum local = 5.92007e-17, global = -1.72535e-18, cumulative = 4.22769e-17
ExecutionTime = 0.41 s  ClockTime = 1 s

Courant Number mean: 5.81185e-09 max: 2.04154e-08
Time = 0.09

diagonal:  Solving for rho, Initial residual = 0, Final residual = 0, No Iterations 0
DILUPBiCGStab:  Solving for e, Initial residual = 0.23885, Final residual = 1.05154e-09, No Iterations 4
GAMG:  Solving for p_rgh, Initial residual = 0.0743903, Final residual = 0.000325558, No Iterations 4
diagonal:  Solving for rho, Initial residual = 0, Final residual = 0, No Iterations 0
time step continuity errors : sum local = 2.67182e-15, global = 4.64491e-18, cumulative = 4.69218e-17
GAMG:  Solving for p_rgh, Initial residual = 0.077208, Final residual = 7.92806e-09, No Iterations 14
diagonal:  Solving for rho, Initial residual = 0, Final residual = 0, No Iterations 0
time step continuity errors : sum local = 6.05948e-17, global = 1.86043e-18, cumulative = 4.87822e-17
ExecutionTime = 0.43 s  ClockTime = 1 s

Courant Number mean: 5.6473e-09 max: 1.96313e-08
Time = 0.095

diagonal:  Solving for rho, Initial residual = 0, Final residual = 0, No Iterations 0
DILUPBiCGStab:  Solving for e, Initial residual = 0.239272, Final residual = 1.31343e-09, No Iterations 4
GAMG:  Solving for p_rgh, Initial residual = 0.0733853, Final residual = 0.000374314, No Iterations 4
diagonal:  Solving for rho, Initial residual = 0, Final residual = 0, No Iterations 0
time step continuity errors : sum local = 2.96251e-15, global = 7.29516e-18, cumulative = 5.60774e-17
GAMG:  Solving for p_rgh, Initial residual = 0.0762077, Final residual = 4.98797e-09, No Iterations 13
diagonal:  Solving for rho, Initial residual = 0, Final residual = 0, No Iterations 0
time step continuity errors : sum local = 6.30677e-17, global = 3.15926e-18, cumulative = 5.92367e-17
ExecutionTime = 0.45 s  ClockTime = 1 s

Courant Number mean: 5.48763e-09 max: 1.88939e-08
Time = 0.1

diagonal:  Solving for rho, Initial residual = 0, Final residual = 0, No Iterations 0
DILUPBiCGStab:  Solving for e, Initial residual = 0.23504, Final residual = 1.33301e-09, No Iterations 4
GAMG:  Solving for p_rgh, Initial residual = 0.0726537, Final residual = 0.000405493, No Iterations 4
diagonal:  Solving for rho, Initial residual = 0, Final residual = 0, No Iterations 0
time step continuity errors : sum local = 3.11252e-15, global = 2.68335e-18, cumulative = 6.192e-17
GAMG:  Solving for p_rgh, Initial residual = 0.0754558, Final residual = 5.13991e-09, No Iterations 14
diagonal:  Solving for rho, Initial residual = 0, Final residual = 0, No Iterations 0
time step continuity errors : sum local = 6.08105e-17, global = -2.98782e-18, cumulative = 5.89322e-17
ExecutionTime = 0.49 s  ClockTime = 1 s

Courant Number mean: 5.33269e-09 max: 1.81991e-08
Time = 0.105

diagonal:  Solving for rho, Initial residual = 0, Final residual = 0, No Iterations 0
DILUPBiCGStab:  Solving for e, Initial residual = 0.234799, Final residual = 2.53242e-09, No Iterations 4
GAMG:  Solving for p_rgh, Initial residual = 0.0720951, Final residual = 0.000426221, No Iterations 4
diagonal:  Solving for rho, Initial residual = 0, Final residual = 0, No Iterations 0
time step continuity errors : sum local = 3.17033e-15, global = 2.05031e-18, cumulative = 6.09825e-17
GAMG:  Solving for p_rgh, Initial residual = 0.0748961, Final residual = 6.29492e-09, No Iterations 13
diagonal:  Solving for rho, Initial residual = 0, Final residual = 0, No Iterations 0
time step continuity errors : sum local = 5.80213e-17, global = -1.33476e-18, cumulative = 5.96477e-17
ExecutionTime = 0.51 s  ClockTime = 1 s

Courant Number mean: 5.18235e-09 max: 1.75431e-08
Time = 0.11

diagonal:  Solving for rho, Initial residual = 0, Final residual = 0, No Iterations 0
DILUPBiCGStab:  Solving for e, Initial residual = 0.238447, Final residual = 1.62621e-09, No Iterations 4
GAMG:  Solving for p_rgh, Initial residual = 0.0716756, Final residual = 0.000440008, No Iterations 4
diagonal:  Solving for rho, Initial residual = 0, Final residual = 0, No Iterations 0
time step continuity errors : sum local = 3.17708e-15, global = 1.28057e-18, cumulative = 6.09283e-17
GAMG:  Solving for p_rgh, Initial residual = 0.0744698, Final residual = 9.37998e-09, No Iterations 13
diagonal:  Solving for rho, Initial residual = 0, Final residual = 0, No Iterations 0
time step continuity errors : sum local = 6.01944e-17, global = -4.64541e-18, cumulative = 5.62829e-17
ExecutionTime = 0.53 s  ClockTime = 1 s

Courant Number mean: 5.03652e-09 max: 1.69224e-08
Time = 0.115

diagonal:  Solving for rho, Initial residual = 0, Final residual = 0, No Iterations 0
DILUPBiCGStab:  Solving for e, Initial residual = 0.234496, Final residual = 1.57076e-09, No Iterations 4
GAMG:  Solving for p_rgh, Initial residual = 0.071347, Final residual = 0.000449651, No Iterations 4
diagonal:  Solving for rho, Initial residual = 0, Final residual = 0, No Iterations 0
time step continuity errors : sum local = 3.14192e-15, global = 3.92127e-18, cumulative = 6.02042e-17
GAMG:  Solving for p_rgh, Initial residual = 0.0741999, Final residual = 6.15294e-09, No Iterations 13
diagonal:  Solving for rho, Initial residual = 0, Final residual = 0, No Iterations 0
time step continuity errors : sum local = 5.89292e-17, global = 3.72213e-21, cumulative = 6.02079e-17
ExecutionTime = 0.55 s  ClockTime = 1 s

Courant Number mean: 4.895e-09 max: 1.63412e-08
Time = 0.12

diagonal:  Solving for rho, Initial residual = 0, Final residual = 0, No Iterations 0
DILUPBiCGStab:  Solving for e, Initial residual = 0.230425, Final residual = 1.64431e-09, No Iterations 4
GAMG:  Solving for p_rgh, Initial residual = 0.0710981, Final residual = 0.000456199, No Iterations 4
diagonal:  Solving for rho, Initial residual = 0, Final residual = 0, No Iterations 0
time step continuity errors : sum local = 3.08913e-15, global = 5.57324e-18, cumulative = 6.57811e-17
GAMG:  Solving for p_rgh, Initial residual = 0.0740948, Final residual = 3.31417e-09, No Iterations 13
diagonal:  Solving for rho, Initial residual = 0, Final residual = 0, No Iterations 0
time step continuity errors : sum local = 6.02366e-17, global = -1.00911e-18, cumulative = 6.4772e-17
ExecutionTime = 0.56 s  ClockTime = 1 s

Courant Number mean: 4.75765e-09 max: 1.57953e-08
Time = 0.125

diagonal:  Solving for rho, Initial residual = 0, Final residual = 0, No Iterations 0
DILUPBiCGStab:  Solving for e, Initial residual = 0.228568, Final residual = 2.23104e-09, No Iterations 4
GAMG:  Solving for p_rgh, Initial residual = 0.0709364, Final residual = 0.000461143, No Iterations 4
diagonal:  Solving for rho, Initial residual = 0, Final residual = 0, No Iterations 0
time step continuity errors : sum local = 3.02506e-15, global = 3.31183e-19, cumulative = 6.51032e-17
GAMG:  Solving for p_rgh, Initial residual = 0.0740345, Final residual = 4.93436e-09, No Iterations 13
diagonal:  Solving for rho, Initial residual = 0, Final residual = 0, No Iterations 0
time step continuity errors : sum local = 6.10129e-17, global = -2.16588e-18, cumulative = 6.29373e-17
ExecutionTime = 0.58 s  ClockTime = 1 s

Courant Number mean: 4.62431e-09 max: 1.52879e-08
Time = 0.13

diagonal:  Solving for rho, Initial residual = 0, Final residual = 0, No Iterations 0
DILUPBiCGStab:  Solving for e, Initial residual = 0.223232, Final residual = 1.47286e-09, No Iterations 4
GAMG:  Solving for p_rgh, Initial residual = 0.0708324, Final residual = 0.000464417, No Iterations 4
diagonal:  Solving for rho, Initial residual = 0, Final residual = 0, No Iterations 0
time step continuity errors : sum local = 2.94579e-15, global = 3.3535e-18, cumulative = 6.62908e-17
GAMG:  Solving for p_rgh, Initial residual = 0.0739964, Final residual = 1.56672e-09, No Iterations 14
diagonal:  Solving for rho, Initial residual = 0, Final residual = 0, No Iterations 0
time step continuity errors : sum local = 5.90032e-17, global = 2.99379e-19, cumulative = 6.65902e-17
ExecutionTime = 0.6 s  ClockTime = 1 s

Courant Number mean: 4.49486e-09 max: 1.48131e-08
Time = 0.135

diagonal:  Solving for rho, Initial residual = 0, Final residual = 0, No Iterations 0
DILUPBiCGStab:  Solving for e, Initial residual = 0.229179, Final residual = 1.66448e-09, No Iterations 4
GAMG:  Solving for p_rgh, Initial residual = 0.0707496, Final residual = 0.000466566, No Iterations 4
diagonal:  Solving for rho, Initial residual = 0, Final residual = 0, No Iterations 0
time step continuity errors : sum local = 2.86481e-15, global = 2.52936e-18, cumulative = 6.91196e-17
GAMG:  Solving for p_rgh, Initial residual = 0.0739734, Final residual = 7.43196e-09, No Iterations 13
diagonal:  Solving for rho, Initial residual = 0, Final residual = 0, No Iterations 0
time step continuity errors : sum local = 5.93504e-17, global = 1.01281e-19, cumulative = 6.92209e-17
ExecutionTime = 0.62 s  ClockTime = 1 s

Courant Number mean: 4.36921e-09 max: 1.43575e-08
Time = 0.14

diagonal:  Solving for rho, Initial residual = 0, Final residual = 0, No Iterations 0
DILUPBiCGStab:  Solving for e, Initial residual = 0.220671, Final residual = 1.74554e-09, No Iterations 4
GAMG:  Solving for p_rgh, Initial residual = 0.070689, Final residual = 0.000468214, No Iterations 4
diagonal:  Solving for rho, Initial residual = 0, Final residual = 0, No Iterations 0
time step continuity errors : sum local = 2.78164e-15, global = 2.54135e-18, cumulative = 7.17622e-17
GAMG:  Solving for p_rgh, Initial residual = 0.0739556, Final residual = 9.56498e-09, No Iterations 13
diagonal:  Solving for rho, Initial residual = 0, Final residual = 0, No Iterations 0
time step continuity errors : sum local = 5.9618e-17, global = -2.17198e-19, cumulative = 7.1545e-17
ExecutionTime = 0.64 s  ClockTime = 1 s

Courant Number mean: 4.24723e-09 max: 1.39864e-08
Time = 0.145

diagonal:  Solving for rho, Initial residual = 0, Final residual = 0, No Iterations 0
DILUPBiCGStab:  Solving for e, Initial residual = 0.219246, Final residual = 1.78553e-09, No Iterations 4
GAMG:  Solving for p_rgh, Initial residual = 0.0706627, Final residual = 0.000469469, No Iterations 4
diagonal:  Solving for rho, Initial residual = 0, Final residual = 0, No Iterations 0
time step continuity errors : sum local = 2.70173e-15, global = -5.40895e-19, cumulative = 7.10041e-17
GAMG:  Solving for p_rgh, Initial residual = 0.0739459, Final residual = 4.40986e-09, No Iterations 14
diagonal:  Solving for rho, Initial residual = 0, Final residual = 0, No Iterations 0
time step continuity errors : sum local = 5.88985e-17, global = -1.02684e-18, cumulative = 6.99773e-17
ExecutionTime = 0.65 s  ClockTime = 1 s

Courant Number mean: 4.12882e-09 max: 1.36252e-08
Time = 0.15

diagonal:  Solving for rho, Initial residual = 0, Final residual = 0, No Iterations 0
DILUPBiCGStab:  Solving for e, Initial residual = 0.216058, Final residual = 1.81734e-09, No Iterations 4
GAMG:  Solving for p_rgh, Initial residual = 0.0706461, Final residual = 0.000470286, No Iterations 4
diagonal:  Solving for rho, Initial residual = 0, Final residual = 0, No Iterations 0
time step continuity errors : sum local = 2.62242e-15, global = 2.24213e-18, cumulative = 7.22194e-17
GAMG:  Solving for p_rgh, Initial residual = 0.0739402, Final residual = 9.66315e-09, No Iterations 13
diagonal:  Solving for rho, Initial residual = 0, Final residual = 0, No Iterations 0
time step continuity errors : sum local = 5.78805e-17, global = -2.53468e-18, cumulative = 6.96847e-17
ExecutionTime = 0.67 s  ClockTime = 1 s

Courant Number mean: 4.01387e-09 max: 1.32726e-08
Time = 0.155

diagonal:  Solving for rho, Initial residual = 0, Final residual = 0, No Iterations 0
DILUPBiCGStab:  Solving for e, Initial residual = 0.21491, Final residual = 1.93346e-09, No Iterations 4
GAMG:  Solving for p_rgh, Initial residual = 0.0706323, Final residual = 0.000470506, No Iterations 4
diagonal:  Solving for rho, Initial residual = 0, Final residual = 0, No Iterations 0
time step continuity errors : sum local = 2.54141e-15, global = 1.60247e-18, cumulative = 7.12872e-17
GAMG:  Solving for p_rgh, Initial residual = 0.0739371, Final residual = 2.44261e-09, No Iterations 15
diagonal:  Solving for rho, Initial residual = 0, Final residual = 0, No Iterations 0
time step continuity errors : sum local = 5.78421e-17, global = 6.22058e-19, cumulative = 7.19092e-17
ExecutionTime = 0.69 s  ClockTime = 1 s

Courant Number mean: 3.90227e-09 max: 1.29285e-08
Time = 0.16

diagonal:  Solving for rho, Initial residual = 0, Final residual = 0, No Iterations 0
DILUPBiCGStab:  Solving for e, Initial residual = 0.216344, Final residual = 1.93162e-09, No Iterations 4
GAMG:  Solving for p_rgh, Initial residual = 0.0706225, Final residual = 0.000470607, No Iterations 4
diagonal:  Solving for rho, Initial residual = 0, Final residual = 0, No Iterations 0
time step continuity errors : sum local = 2.46231e-15, global = 2.6921e-18, cumulative = 7.46013e-17
GAMG:  Solving for p_rgh, Initial residual = 0.0739352, Final residual = 1.88131e-09, No Iterations 16
diagonal:  Solving for rho, Initial residual = 0, Final residual = 0, No Iterations 0
time step continuity errors : sum local = 5.90095e-17, global = -4.45403e-19, cumulative = 7.41559e-17
ExecutionTime = 0.71 s  ClockTime = 1 s

Courant Number mean: 3.79393e-09 max: 1.25926e-08
Time = 0.165

diagonal:  Solving for rho, Initial residual = 0, Final residual = 0, No Iterations 0
DILUPBiCGStab:  Solving for e, Initial residual = 0.207043, Final residual = 1.71259e-09, No Iterations 4
GAMG:  Solving for p_rgh, Initial residual = 0.0706215, Final residual = 0.000470322, No Iterations 4
diagonal:  Solving for rho, Initial residual = 0, Final residual = 0, No Iterations 0
time step continuity errors : sum local = 2.37485e-15, global = 1.01534e-17, cumulative = 8.43093e-17
GAMG:  Solving for p_rgh, Initial residual = 0.073936, Final residual = 9.90564e-09, No Iterations 14
diagonal:  Solving for rho, Initial residual = 0, Final residual = 0, No Iterations 0
time step continuity errors : sum local = 6.40165e-17, global = 6.06132e-18, cumulative = 9.03706e-17
ExecutionTime = 0.73 s  ClockTime = 1 s

Courant Number mean: 3.68874e-09 max: 1.22647e-08
Time = 0.17

diagonal:  Solving for rho, Initial residual = 0, Final residual = 0, No Iterations 0
DILUPBiCGStab:  Solving for e, Initial residual = 0.203876, Final residual = 1.97066e-09, No Iterations 4
GAMG:  Solving for p_rgh, Initial residual = 0.0706215, Final residual = 0.000470126, No Iterations 4
diagonal:  Solving for rho, Initial residual = 0, Final residual = 0, No Iterations 0
time step continuity errors : sum local = 2.31072e-15, global = -2.00212e-18, cumulative = 8.83685e-17
GAMG:  Solving for p_rgh, Initial residual = 0.0739446, Final residual = 6.62723e-09, No Iterations 14
diagonal:  Solving for rho, Initial residual = 0, Final residual = 0, No Iterations 0
time step continuity errors : sum local = 6.08049e-17, global = -4.01255e-18, cumulative = 8.4356e-17
ExecutionTime = 0.75 s  ClockTime = 1 s

Courant Number mean: 3.5866e-09 max: 1.19447e-08
Time = 0.175

diagonal:  Solving for rho, Initial residual = 0, Final residual = 0, No Iterations 0
DILUPBiCGStab:  Solving for e, Initial residual = 0.205018, Final residual = 2.30237e-09, No Iterations 4
GAMG:  Solving for p_rgh, Initial residual = 0.0706287, Final residual = 0.000470333, No Iterations 4
diagonal:  Solving for rho, Initial residual = 0, Final residual = 0, No Iterations 0
time step continuity errors : sum local = 2.23615e-15, global = 5.66997e-18, cumulative = 9.00259e-17
GAMG:  Solving for p_rgh, Initial residual = 0.0739534, Final residual = 4.02707e-09, No Iterations 14
diagonal:  Solving for rho, Initial residual = 0, Final residual = 0, No Iterations 0
time step continuity errors : sum local = 5.91785e-17, global = 2.13151e-18, cumulative = 9.21574e-17
ExecutionTime = 0.77 s  ClockTime = 1 s

Courant Number mean: 3.48741e-09 max: 1.16324e-08
Time = 0.18

diagonal:  Solving for rho, Initial residual = 0, Final residual = 0, No Iterations 0
DILUPBiCGStab:  Solving for e, Initial residual = 0.201406, Final residual = 1.70153e-09, No Iterations 4
GAMG:  Solving for p_rgh, Initial residual = 0.0706311, Final residual = 0.000469586, No Iterations 4
diagonal:  Solving for rho, Initial residual = 0, Final residual = 0, No Iterations 0
time step continuity errors : sum local = 2.16331e-15, global = 9.45688e-19, cumulative = 9.31031e-17
GAMG:  Solving for p_rgh, Initial residual = 0.0739692, Final residual = 8.50074e-09, No Iterations 14
diagonal:  Solving for rho, Initial residual = 0, Final residual = 0, No Iterations 0
time step continuity errors : sum local = 6.14014e-17, global = -3.01113e-18, cumulative = 9.0092e-17
ExecutionTime = 0.78 s  ClockTime = 1 s

Courant Number mean: 3.39107e-09 max: 1.13276e-08
Time = 0.185

diagonal:  Solving for rho, Initial residual = 0, Final residual = 0, No Iterations 0
DILUPBiCGStab:  Solving for e, Initial residual = 0.194574, Final residual = 1.44936e-09, No Iterations 4
GAMG:  Solving for p_rgh, Initial residual = 0.0706378, Final residual = 0.000469303, No Iterations 4
diagonal:  Solving for rho, Initial residual = 0, Final residual = 0, No Iterations 0
time step continuity errors : sum local = 2.09315e-15, global = 2.77411e-19, cumulative = 9.03694e-17
GAMG:  Solving for p_rgh, Initial residual = 0.0739823, Final residual = 6.1843e-09, No Iterations 15
diagonal:  Solving for rho, Initial residual = 0, Final residual = 0, No Iterations 0
time step continuity errors : sum local = 5.90599e-17, global = 4.47872e-20, cumulative = 9.04142e-17
ExecutionTime = 0.8 s  ClockTime = 1 s

Courant Number mean: 3.29753e-09 max: 1.10301e-08
Time = 0.19

diagonal:  Solving for rho, Initial residual = 0, Final residual = 0, No Iterations 0
DILUPBiCGStab:  Solving for e, Initial residual = 0.201567, Final residual = 1.10019e-09, No Iterations 4
GAMG:  Solving for p_rgh, Initial residual = 0.0706454, Final residual = 0.000468412, No Iterations 4
diagonal:  Solving for rho, Initial residual = 0, Final residual = 0, No Iterations 0
time step continuity errors : sum local = 2.01995e-15, global = 3.1796e-18, cumulative = 9.35938e-17
GAMG:  Solving for p_rgh, Initial residual = 0.0739973, Final residual = 3.33902e-09, No Iterations 15
diagonal:  Solving for rho, Initial residual = 0, Final residual = 0, No Iterations 0
time step continuity errors : sum local = 5.91889e-17, global = 1.8217e-18, cumulative = 9.54155e-17
ExecutionTime = 0.82 s  ClockTime = 1 s

Courant Number mean: 3.20671e-09 max: 1.07411e-08
Time = 0.195

diagonal:  Solving for rho, Initial residual = 0, Final residual = 0, No Iterations 0
DILUPBiCGStab:  Solving for e, Initial residual = 0.197414, Final residual = 1.04345e-09, No Iterations 4
GAMG:  Solving for p_rgh, Initial residual = 0.0706506, Final residual = 0.000467757, No Iterations 4
diagonal:  Solving for rho, Initial residual = 0, Final residual = 0, No Iterations 0
time step continuity errors : sum local = 1.95785e-15, global = 1.09698e-18, cumulative = 9.65125e-17
GAMG:  Solving for p_rgh, Initial residual = 0.0740121, Final residual = 9.14578e-09, No Iterations 13
diagonal:  Solving for rho, Initial residual = 0, Final residual = 0, No Iterations 0
time step continuity errors : sum local = 5.88862e-17, global = 2.58347e-19, cumulative = 9.67708e-17
ExecutionTime = 0.84 s  ClockTime = 1 s

Courant Number mean: 3.11854e-09 max: 1.04634e-08
Time = 0.2

diagonal:  Solving for rho, Initial residual = 0, Final residual = 0, No Iterations 0
DILUPBiCGStab:  Solving for e, Initial residual = 0.196714, Final residual = 1.53857e-09, No Iterations 4
GAMG:  Solving for p_rgh, Initial residual = 0.0706563, Final residual = 0.00046725, No Iterations 4
diagonal:  Solving for rho, Initial residual = 0, Final residual = 0, No Iterations 0
time step continuity errors : sum local = 1.89247e-15, global = 2.62741e-18, cumulative = 9.93982e-17
GAMG:  Solving for p_rgh, Initial residual = 0.0740237, Final residual = 8.02017e-09, No Iterations 13
diagonal:  Solving for rho, Initial residual = 0, Final residual = 0, No Iterations 0
time step continuity errors : sum local = 5.96715e-17, global = 1.3813e-18, cumulative = 1.0078e-16
ExecutionTime = 0.87 s  ClockTime = 1 s

Courant Number mean: 3.03306e-09 max: 1.01924e-08
Time = 0.205

diagonal:  Solving for rho, Initial residual = 0, Final residual = 0, No Iterations 0
DILUPBiCGStab:  Solving for e, Initial residual = 0.187892, Final residual = 1.27335e-09, No Iterations 4
GAMG:  Solving for p_rgh, Initial residual = 0.0706674, Final residual = 0.000466712, No Iterations 4
diagonal:  Solving for rho, Initial residual = 0, Final residual = 0, No Iterations 0
time step continuity errors : sum local = 1.8404e-15, global = 1.01132e-18, cumulative = 1.01791e-16
GAMG:  Solving for p_rgh, Initial residual = 0.0740395, Final residual = 2.67916e-09, No Iterations 14
diagonal:  Solving for rho, Initial residual = 0, Final residual = 0, No Iterations 0
time step continuity errors : sum local = 6.04386e-17, global = -1.6013e-18, cumulative = 1.0019e-16
ExecutionTime = 0.88 s  ClockTime = 1 s

Courant Number mean: 2.95006e-09 max: 9.92801e-09
Time = 0.21

diagonal:  Solving for rho, Initial residual = 0, Final residual = 0, No Iterations 0
DILUPBiCGStab:  Solving for e, Initial residual = 0.187071, Final residual = 1.71127e-09, No Iterations 4
GAMG:  Solving for p_rgh, Initial residual = 0.0706758, Final residual = 0.000466434, No Iterations 4
diagonal:  Solving for rho, Initial residual = 0, Final residual = 0, No Iterations 0
time step continuity errors : sum local = 1.7794e-15, global = -2.75803e-19, cumulative = 9.99138e-17
GAMG:  Solving for p_rgh, Initial residual = 0.0740539, Final residual = 2.50351e-09, No Iterations 14
diagonal:  Solving for rho, Initial residual = 0, Final residual = 0, No Iterations 0
time step continuity errors : sum local = 5.90092e-17, global = -1.1854e-18, cumulative = 9.87284e-17
ExecutionTime = 0.91 s  ClockTime = 1 s

Courant Number mean: 2.86947e-09 max: 9.67004e-09
Time = 0.215

diagonal:  Solving for rho, Initial residual = 0, Final residual = 0, No Iterations 0
DILUPBiCGStab:  Solving for e, Initial residual = 0.19023, Final residual = 1.87636e-09, No Iterations 4
GAMG:  Solving for p_rgh, Initial residual = 0.0706858, Final residual = 0.000465597, No Iterations 4
diagonal:  Solving for rho, Initial residual = 0, Final residual = 0, No Iterations 0
time step continuity errors : sum local = 1.72041e-15, global = 1.10359e-18, cumulative = 9.98319e-17
GAMG:  Solving for p_rgh, Initial residual = 0.0740695, Final residual = 3.90538e-09, No Iterations 14
diagonal:  Solving for rho, Initial residual = 0, Final residual = 0, No Iterations 0
time step continuity errors : sum local = 5.76694e-17, global = -9.12479e-19, cumulative = 9.89195e-17
ExecutionTime = 0.93 s  ClockTime = 1 s

Courant Number mean: 2.7912e-09 max: 9.41837e-09
Time = 0.22

diagonal:  Solving for rho, Initial residual = 0, Final residual = 0, No Iterations 0
DILUPBiCGStab:  Solving for e, Initial residual = 0.189623, Final residual = 1.63176e-09, No Iterations 4
GAMG:  Solving for p_rgh, Initial residual = 0.0706893, Final residual = 0.000465043, No Iterations 4
diagonal:  Solving for rho, Initial residual = 0, Final residual = 0, No Iterations 0
time step continuity errors : sum local = 1.66672e-15, global = -4.37905e-19, cumulative = 9.84816e-17
GAMG:  Solving for p_rgh, Initial residual = 0.0740823, Final residual = 3.86837e-09, No Iterations 14
diagonal:  Solving for rho, Initial residual = 0, Final residual = 0, No Iterations 0
time step continuity errors : sum local = 5.9653e-17, global = -5.87822e-19, cumulative = 9.78937e-17
ExecutionTime = 0.95 s  ClockTime = 1 s

Courant Number mean: 2.71522e-09 max: 9.17288e-09
Time = 0.225

diagonal:  Solving for rho, Initial residual = 0, Final residual = 0, No Iterations 0
DILUPBiCGStab:  Solving for e, Initial residual = 0.187324, Final residual = 1.55886e-09, No Iterations 4
GAMG:  Solving for p_rgh, Initial residual = 0.0707002, Final residual = 0.000464343, No Iterations 4
diagonal:  Solving for rho, Initial residual = 0, Final residual = 0, No Iterations 0
time step continuity errors : sum local = 1.61402e-15, global = 1.03212e-18, cumulative = 9.89259e-17
GAMG:  Solving for p_rgh, Initial residual = 0.074094, Final residual = 3.47926e-09, No Iterations 14
diagonal:  Solving for rho, Initial residual = 0, Final residual = 0, No Iterations 0
time step continuity errors : sum local = 5.75609e-17, global = -1.51742e-19, cumulative = 9.87741e-17
ExecutionTime = 0.97 s  ClockTime = 1 s

Courant Number mean: 2.6414e-09 max: 8.93343e-09
Time = 0.23

diagonal:  Solving for rho, Initial residual = 0, Final residual = 0, No Iterations 0
DILUPBiCGStab:  Solving for e, Initial residual = 0.185422, Final residual = 1.51299e-09, No Iterations 4
GAMG:  Solving for p_rgh, Initial residual = 0.0707004, Final residual = 0.000463538, No Iterations 4
diagonal:  Solving for rho, Initial residual = 0, Final residual = 0, No Iterations 0
time step continuity errors : sum local = 1.55969e-15, global = 4.11009e-18, cumulative = 1.02884e-16
GAMG:  Solving for p_rgh, Initial residual = 0.0741023, Final residual = 3.60469e-09, No Iterations 14
diagonal:  Solving for rho, Initial residual = 0, Final residual = 0, No Iterations 0
time step continuity errors : sum local = 5.82798e-17, global = 3.19224e-18, cumulative = 1.06076e-16
ExecutionTime = 0.98 s  ClockTime = 1 s

Courant Number mean: 2.56972e-09 max: 8.69991e-09
Time = 0.235

diagonal:  Solving for rho, Initial residual = 0, Final residual = 0, No Iterations 0
DILUPBiCGStab:  Solving for e, Initial residual = 0.184875, Final residual = 1.65899e-09, No Iterations 4
GAMG:  Solving for p_rgh, Initial residual = 0.0707085, Final residual = 0.000462779, No Iterations 4
diagonal:  Solving for rho, Initial residual = 0, Final residual = 0, No Iterations 0
time step continuity errors : sum local = 1.50878e-15, global = 3.75966e-18, cumulative = 1.09836e-16
GAMG:  Solving for p_rgh, Initial residual = 0.0741124, Final residual = 8.54464e-09, No Iterations 13
diagonal:  Solving for rho, Initial residual = 0, Final residual = 0, No Iterations 0
time step continuity errors : sum local = 5.75251e-17, global = 2.02092e-18, cumulative = 1.11857e-16
ExecutionTime = 1 s  ClockTime = 1 s

Courant Number mean: 2.50011e-09 max: 8.47219e-09
Time = 0.24

diagonal:  Solving for rho, Initial residual = 0, Final residual = 0, No Iterations 0
DILUPBiCGStab:  Solving for e, Initial residual = 0.184421, Final residual = 1.64273e-09, No Iterations 4
GAMG:  Solving for p_rgh, Initial residual = 0.0707083, Final residual = 0.000462524, No Iterations 4
diagonal:  Solving for rho, Initial residual = 0, Final residual = 0, No Iterations 0
time step continuity errors : sum local = 1.46895e-15, global = 1.76821e-18, cumulative = 1.13625e-16
GAMG:  Solving for p_rgh, Initial residual = 0.0741192, Final residual = 5.94739e-09, No Iterations 12
diagonal:  Solving for rho, Initial residual = 0, Final residual = 0, No Iterations 0
time step continuity errors : sum local = 6.06519e-17, global = -7.64098e-19, cumulative = 1.12861e-16
ExecutionTime = 1.02 s  ClockTime = 1 s

Courant Number mean: 2.43249e-09 max: 8.25015e-09
Time = 0.245

diagonal:  Solving for rho, Initial residual = 0, Final residual = 0, No Iterations 0
DILUPBiCGStab:  Solving for e, Initial residual = 0.174915, Final residual = 1.61475e-09, No Iterations 4
GAMG:  Solving for p_rgh, Initial residual = 0.0707145, Final residual = 0.000461885, No Iterations 4
diagonal:  Solving for rho, Initial residual = 0, Final residual = 0, No Iterations 0
time step continuity errors : sum local = 1.41899e-15, global = 8.42547e-18, cumulative = 1.21287e-16
GAMG:  Solving for p_rgh, Initial residual = 0.0741236, Final residual = 8.18523e-09, No Iterations 13
diagonal:  Solving for rho, Initial residual = 0, Final residual = 0, No Iterations 0
time step continuity errors : sum local = 5.79632e-17, global = 4.60686e-18, cumulative = 1.25893e-16
ExecutionTime = 1.04 s  ClockTime = 1 s

Courant Number mean: 2.3668e-09 max: 8.03367e-09
Time = 0.25

diagonal:  Solving for rho, Initial residual = 0, Final residual = 0, No Iterations 0
DILUPBiCGStab:  Solving for e, Initial residual = 0.181596, Final residual = 1.58974e-09, No Iterations 4
GAMG:  Solving for p_rgh, Initial residual = 0.0707133, Final residual = 0.000461075, No Iterations 4
diagonal:  Solving for rho, Initial residual = 0, Final residual = 0, No Iterations 0
time step continuity errors : sum local = 1.37657e-15, global = 5.27933e-18, cumulative = 1.31173e-16
GAMG:  Solving for p_rgh, Initial residual = 0.0741296, Final residual = 4.66193e-09, No Iterations 13
diagonal:  Solving for rho, Initial residual = 0, Final residual = 0, No Iterations 0
time step continuity errors : sum local = 5.90224e-17, global = 2.62012e-18, cumulative = 1.33793e-16
ExecutionTime = 1.06 s  ClockTime = 1 s

Courant Number mean: 2.30297e-09 max: 7.82262e-09
Time = 0.255

diagonal:  Solving for rho, Initial residual = 0, Final residual = 0, No Iterations 0
DILUPBiCGStab:  Solving for e, Initial residual = 0.177473, Final residual = 1.63057e-09, No Iterations 4
GAMG:  Solving for p_rgh, Initial residual = 0.070718, Final residual = 0.000461608, No Iterations 4
diagonal:  Solving for rho, Initial residual = 0, Final residual = 0, No Iterations 0
time step continuity errors : sum local = 1.34296e-15, global = 2.53773e-18, cumulative = 1.36331e-16
GAMG:  Solving for p_rgh, Initial residual = 0.0741343, Final residual = 3.05032e-09, No Iterations 14
diagonal:  Solving for rho, Initial residual = 0, Final residual = 0, No Iterations 0
time step continuity errors : sum local = 6.34118e-17, global = 3.24086e-19, cumulative = 1.36655e-16
ExecutionTime = 1.07 s  ClockTime = 1 s

Courant Number mean: 2.24093e-09 max: 7.6169e-09
Time = 0.26

diagonal:  Solving for rho, Initial residual = 0, Final residual = 0, No Iterations 0
DILUPBiCGStab:  Solving for e, Initial residual = 0.173918, Final residual = 1.52812e-09, No Iterations 4
GAMG:  Solving for p_rgh, Initial residual = 0.0707235, Final residual = 0.000461033, No Iterations 4
diagonal:  Solving for rho, Initial residual = 0, Final residual = 0, No Iterations 0
time step continuity errors : sum local = 1.2961e-15, global = 4.69263e-18, cumulative = 1.41347e-16
GAMG:  Solving for p_rgh, Initial residual = 0.0741368, Final residual = 3.99375e-09, No Iterations 14
diagonal:  Solving for rho, Initial residual = 0, Final residual = 0, No Iterations 0
time step continuity errors : sum local = 5.84494e-17, global = 3.58303e-18, cumulative = 1.4493e-16
ExecutionTime = 1.09 s  ClockTime = 1 s

Courant Number mean: 2.18067e-09 max: 7.41639e-09
Time = 0.265

diagonal:  Solving for rho, Initial residual = 0, Final residual = 0, No Iterations 0
DILUPBiCGStab:  Solving for e, Initial residual = 0.18078, Final residual = 1.58218e-09, No Iterations 4
GAMG:  Solving for p_rgh, Initial residual = 0.0707216, Final residual = 0.000459917, No Iterations 4
diagonal:  Solving for rho, Initial residual = 0, Final residual = 0, No Iterations 0
time step continuity errors : sum local = 1.25482e-15, global = 2.69342e-18, cumulative = 1.47624e-16
GAMG:  Solving for p_rgh, Initial residual = 0.074141, Final residual = 2.89554e-09, No Iterations 14
diagonal:  Solving for rho, Initial residual = 0, Final residual = 0, No Iterations 0
time step continuity errors : sum local = 5.9204e-17, global = 2.44007e-18, cumulative = 1.50064e-16
ExecutionTime = 1.11 s  ClockTime = 1 s

Courant Number mean: 2.12214e-09 max: 7.22096e-09
Time = 0.27

diagonal:  Solving for rho, Initial residual = 0, Final residual = 0, No Iterations 0
DILUPBiCGStab:  Solving for e, Initial residual = 0.179889, Final residual = 1.10962e-09, No Iterations 4
GAMG:  Solving for p_rgh, Initial residual = 0.0707262, Final residual = 0.000459219, No Iterations 4
diagonal:  Solving for rho, Initial residual = 0, Final residual = 0, No Iterations 0
time step continuity errors : sum local = 1.21316e-15, global = 7.03098e-18, cumulative = 1.57095e-16
GAMG:  Solving for p_rgh, Initial residual = 0.0741451, Final residual = 9.89966e-09, No Iterations 12
diagonal:  Solving for rho, Initial residual = 0, Final residual = 0, No Iterations 0
time step continuity errors : sum local = 5.92414e-17, global = 5.5451e-18, cumulative = 1.6264e-16
ExecutionTime = 1.13 s  ClockTime = 1 s

Courant Number mean: 2.06524e-09 max: 7.03052e-09
Time = 0.275

diagonal:  Solving for rho, Initial residual = 0, Final residual = 0, No Iterations 0
DILUPBiCGStab:  Solving for e, Initial residual = 0.171286, Final residual = 1.11901e-09, No Iterations 4
GAMG:  Solving for p_rgh, Initial residual = 0.0707255, Final residual = 0.000458587, No Iterations 4
diagonal:  Solving for rho, Initial residual = 0, Final residual = 0, No Iterations 0
time step continuity errors : sum local = 1.1797e-15, global = 5.36349e-18, cumulative = 1.68003e-16
GAMG:  Solving for p_rgh, Initial residual = 0.0741521, Final residual = 2.70172e-09, No Iterations 14
diagonal:  Solving for rho, Initial residual = 0, Final residual = 0, No Iterations 0
time step continuity errors : sum local = 5.95816e-17, global = 3.19635e-18, cumulative = 1.712e-16
ExecutionTime = 1.14 s  ClockTime = 1 s

Courant Number mean: 2.00994e-09 max: 6.84494e-09
Time = 0.28

diagonal:  Solving for rho, Initial residual = 0, Final residual = 0, No Iterations 0
DILUPBiCGStab:  Solving for e, Initial residual = 0.174973, Final residual = 1.16426e-09, No Iterations 4
GAMG:  Solving for p_rgh, Initial residual = 0.070727, Final residual = 0.000458441, No Iterations 4
diagonal:  Solving for rho, Initial residual = 0, Final residual = 0, No Iterations 0
time step continuity errors : sum local = 1.14398e-15, global = 1.01512e-17, cumulative = 1.81351e-16
GAMG:  Solving for p_rgh, Initial residual = 0.074151, Final residual = 6.32533e-09, No Iterations 13
diagonal:  Solving for rho, Initial residual = 0, Final residual = 0, No Iterations 0
time step continuity errors : sum local = 5.77399e-17, global = 4.50208e-18, cumulative = 1.85853e-16
ExecutionTime = 1.17 s  ClockTime = 1 s

Courant Number mean: 1.95621e-09 max: 6.66412e-09
Time = 0.285

diagonal:  Solving for rho, Initial residual = 0, Final residual = 0, No Iterations 0
DILUPBiCGStab:  Solving for e, Initial residual = 0.172236, Final residual = 1.17111e-09, No Iterations 4
GAMG:  Solving for p_rgh, Initial residual = 0.0707242, Final residual = 0.000457529, No Iterations 4
diagonal:  Solving for rho, Initial residual = 0, Final residual = 0, No Iterations 0
time step continuity errors : sum local = 1.10957e-15, global = 1.02795e-17, cumulative = 1.96133e-16
GAMG:  Solving for p_rgh, Initial residual = 0.0741526, Final residual = 2.40162e-09, No Iterations 14
diagonal:  Solving for rho, Initial residual = 0, Final residual = 0, No Iterations 0
time step continuity errors : sum local = 5.75225e-17, global = 5.7099e-18, cumulative = 2.01842e-16
ExecutionTime = 1.18 s  ClockTime = 1 s

Courant Number mean: 1.90402e-09 max: 6.48795e-09
Time = 0.29

diagonal:  Solving for rho, Initial residual = 0, Final residual = 0, No Iterations 0
DILUPBiCGStab:  Solving for e, Initial residual = 0.171934, Final residual = 1.30184e-09, No Iterations 4
GAMG:  Solving for p_rgh, Initial residual = 0.0707257, Final residual = 0.000457527, No Iterations 4
diagonal:  Solving for rho, Initial residual = 0, Final residual = 0, No Iterations 0
time step continuity errors : sum local = 1.07909e-15, global = 5.67306e-18, cumulative = 2.07515e-16
GAMG:  Solving for p_rgh, Initial residual = 0.0741541, Final residual = 3.5141e-09, No Iterations 14
diagonal:  Solving for rho, Initial residual = 0, Final residual = 0, No Iterations 0
time step continuity errors : sum local = 5.89355e-17, global = 2.34617e-18, cumulative = 2.09862e-16
ExecutionTime = 1.2 s  ClockTime = 1 s

Courant Number mean: 1.8533e-09 max: 6.31633e-09
Time = 0.295

diagonal:  Solving for rho, Initial residual = 0, Final residual = 0, No Iterations 0
DILUPBiCGStab:  Solving for e, Initial residual = 0.16849, Final residual = 1.34423e-09, No Iterations 4
GAMG:  Solving for p_rgh, Initial residual = 0.0707262, Final residual = 0.000457247, No Iterations 4
diagonal:  Solving for rho, Initial residual = 0, Final residual = 0, No Iterations 0
time step continuity errors : sum local = 1.045e-15, global = 7.48407e-18, cumulative = 2.17346e-16
GAMG:  Solving for p_rgh, Initial residual = 0.0741539, Final residual = 2.50387e-09, No Iterations 14
diagonal:  Solving for rho, Initial residual = 0, Final residual = 0, No Iterations 0
time step continuity errors : sum local = 5.827e-17, global = 4.46022e-18, cumulative = 2.21806e-16
ExecutionTime = 1.22 s  ClockTime = 2 s

Courant Number mean: 1.80401e-09 max: 6.14914e-09
Time = 0.3

diagonal:  Solving for rho, Initial residual = 0, Final residual = 0, No Iterations 0
DILUPBiCGStab:  Solving for e, Initial residual = 0.166335, Final residual = 1.24386e-09, No Iterations 4
GAMG:  Solving for p_rgh, Initial residual = 0.0707254, Final residual = 0.000457028, No Iterations 4
diagonal:  Solving for rho, Initial residual = 0, Final residual = 0, No Iterations 0
time step continuity errors : sum local = 1.01887e-15, global = 4.89748e-18, cumulative = 2.26703e-16
GAMG:  Solving for p_rgh, Initial residual = 0.074156, Final residual = 3.03559e-09, No Iterations 14
diagonal:  Solving for rho, Initial residual = 0, Final residual = 0, No Iterations 0
time step continuity errors : sum local = 6.03676e-17, global = 3.60052e-18, cumulative = 2.30304e-16
ExecutionTime = 1.26 s  ClockTime = 2 s

Courant Number mean: 1.75609e-09 max: 5.98629e-09
Time = 0.305

diagonal:  Solving for rho, Initial residual = 0, Final residual = 0, No Iterations 0
DILUPBiCGStab:  Solving for e, Initial residual = 0.165879, Final residual = 9.04921e-10, No Iterations 4
GAMG:  Solving for p_rgh, Initial residual = 0.0707232, Final residual = 0.000457251, No Iterations 4
diagonal:  Solving for rho, Initial residual = 0, Final residual = 0, No Iterations 0
time step continuity errors : sum local = 9.86958e-16, global = 5.43723e-18, cumulative = 2.35741e-16
GAMG:  Solving for p_rgh, Initial residual = 0.0741519, Final residual = 3.67786e-09, No Iterations 14
diagonal:  Solving for rho, Initial residual = 0, Final residual = 0, No Iterations 0
time step continuity errors : sum local = 6.02155e-17, global = 3.9967e-18, cumulative = 2.39738e-16
ExecutionTime = 1.28 s  ClockTime = 2 s

Courant Number mean: 1.70955e-09 max: 5.82767e-09
Time = 0.31

diagonal:  Solving for rho, Initial residual = 0, Final residual = 0, No Iterations 0
DILUPBiCGStab:  Solving for e, Initial residual = 0.165864, Final residual = 9.992e-10, No Iterations 4
GAMG:  Solving for p_rgh, Initial residual = 0.070721, Final residual = 0.000456165, No Iterations 4
diagonal:  Solving for rho, Initial residual = 0, Final residual = 0, No Iterations 0
time step continuity errors : sum local = 9.54394e-16, global = 1.07161e-17, cumulative = 2.50454e-16
GAMG:  Solving for p_rgh, Initial residual = 0.0741475, Final residual = 2.72898e-09, No Iterations 14
diagonal:  Solving for rho, Initial residual = 0, Final residual = 0, No Iterations 0
time step continuity errors : sum local = 5.61413e-17, global = 6.37719e-18, cumulative = 2.56831e-16
ExecutionTime = 1.29 s  ClockTime = 2 s

Courant Number mean: 1.66433e-09 max: 5.67318e-09
Time = 0.315

diagonal:  Solving for rho, Initial residual = 0, Final residual = 0, No Iterations 0
DILUPBiCGStab:  Solving for e, Initial residual = 0.16616, Final residual = 1.62902e-09, No Iterations 4
GAMG:  Solving for p_rgh, Initial residual = 0.0707152, Final residual = 0.000455846, No Iterations 4
diagonal:  Solving for rho, Initial residual = 0, Final residual = 0, No Iterations 0
time step continuity errors : sum local = 9.31433e-16, global = 5.47374e-18, cumulative = 2.62305e-16
GAMG:  Solving for p_rgh, Initial residual = 0.0741455, Final residual = 3.3479e-09, No Iterations 14
diagonal:  Solving for rho, Initial residual = 0, Final residual = 0, No Iterations 0
time step continuity errors : sum local = 5.74124e-17, global = 4.05958e-18, cumulative = 2.66365e-16
ExecutionTime = 1.31 s  ClockTime = 2 s

Courant Number mean: 1.62037e-09 max: 5.52272e-09
Time = 0.32

diagonal:  Solving for rho, Initial residual = 0, Final residual = 0, No Iterations 0
DILUPBiCGStab:  Solving for e, Initial residual = 0.163184, Final residual = 9.36457e-10, No Iterations 4
GAMG:  Solving for p_rgh, Initial residual = 0.0707161, Final residual = 0.000455904, No Iterations 4
diagonal:  Solving for rho, Initial residual = 0, Final residual = 0, No Iterations 0
time step continuity errors : sum local = 9.01213e-16, global = 1.22394e-17, cumulative = 2.78604e-16
GAMG:  Solving for p_rgh, Initial residual = 0.0741378, Final residual = 3.53396e-09, No Iterations 14
diagonal:  Solving for rho, Initial residual = 0, Final residual = 0, No Iterations 0
time step continuity errors : sum local = 5.46064e-17, global = 5.95783e-18, cumulative = 2.84562e-16
ExecutionTime = 1.33 s  ClockTime = 2 s

Courant Number mean: 1.57764e-09 max: 5.37621e-09
Time = 0.325

diagonal:  Solving for rho, Initial residual = 0, Final residual = 0, No Iterations 0
DILUPBiCGStab:  Solving for e, Initial residual = 0.159529, Final residual = 1.01542e-09, No Iterations 4
GAMG:  Solving for p_rgh, Initial residual = 0.0706989, Final residual = 0.000454707, No Iterations 4
diagonal:  Solving for rho, Initial residual = 0, Final residual = 0, No Iterations 0
time step continuity errors : sum local = 8.73312e-16, global = 8.35945e-18, cumulative = 2.92921e-16
GAMG:  Solving for p_rgh, Initial residual = 0.0741284, Final residual = 4.21561e-09, No Iterations 14
diagonal:  Solving for rho, Initial residual = 0, Final residual = 0, No Iterations 0
time step continuity errors : sum local = 5.52036e-17, global = 6.0913e-18, cumulative = 2.99012e-16
ExecutionTime = 1.35 s  ClockTime = 2 s

Courant Number mean: 1.5361e-09 max: 5.23353e-09
Time = 0.33

diagonal:  Solving for rho, Initial residual = 0, Final residual = 0, No Iterations 0
DILUPBiCGStab:  Solving for e, Initial residual = 0.160626, Final residual = 1.37548e-09, No Iterations 4
GAMG:  Solving for p_rgh, Initial residual = 0.0707, Final residual = 0.000454592, No Iterations 4
diagonal:  Solving for rho, Initial residual = 0, Final residual = 0, No Iterations 0
time step continuity errors : sum local = 8.45689e-16, global = 1.05492e-17, cumulative = 3.09562e-16
GAMG:  Solving for p_rgh, Initial residual = 0.0741232, Final residual = 3.29537e-09, No Iterations 14
diagonal:  Solving for rho, Initial residual = 0, Final residual = 0, No Iterations 0
time step continuity errors : sum local = 5.65278e-17, global = 9.06311e-18, cumulative = 3.18625e-16
ExecutionTime = 1.37 s  ClockTime = 2 s

Courant Number mean: 1.49576e-09 max: 5.0946e-09
Time = 0.335

diagonal:  Solving for rho, Initial residual = 0, Final residual = 0, No Iterations 0
DILUPBiCGStab:  Solving for e, Initial residual = 0.158622, Final residual = 1.03763e-09, No Iterations 4
GAMG:  Solving for p_rgh, Initial residual = 0.0706851, Final residual = 0.000454212, No Iterations 4
diagonal:  Solving for rho, Initial residual = 0, Final residual = 0, No Iterations 0
time step continuity errors : sum local = 8.26496e-16, global = 8.93081e-18, cumulative = 3.27556e-16
GAMG:  Solving for p_rgh, Initial residual = 0.0741165, Final residual = 3.95342e-09, No Iterations 14
diagonal:  Solving for rho, Initial residual = 0, Final residual = 0, No Iterations 0
time step continuity errors : sum local = 5.50481e-17, global = 4.12308e-18, cumulative = 3.31679e-16
ExecutionTime = 1.39 s  ClockTime = 2 s

Courant Number mean: 1.45654e-09 max: 4.95933e-09
Time = 0.34

diagonal:  Solving for rho, Initial residual = 0, Final residual = 0, No Iterations 0
DILUPBiCGStab:  Solving for e, Initial residual = 0.157154, Final residual = 1.52493e-09, No Iterations 4
GAMG:  Solving for p_rgh, Initial residual = 0.0706856, Final residual = 0.000455072, No Iterations 4
diagonal:  Solving for rho, Initial residual = 0, Final residual = 0, No Iterations 0
time step continuity errors : sum local = 8.03856e-16, global = 8.09226e-18, cumulative = 3.39771e-16
GAMG:  Solving for p_rgh, Initial residual = 0.0741095, Final residual = 6.22573e-09, No Iterations 14
diagonal:  Solving for rho, Initial residual = 0, Final residual = 0, No Iterations 0
time step continuity errors : sum local = 5.62106e-17, global = 3.03774e-18, cumulative = 3.42809e-16
ExecutionTime = 1.4 s  ClockTime = 2 s

Courant Number mean: 1.4184e-09 max: 4.82763e-09
Time = 0.345

diagonal:  Solving for rho, Initial residual = 0, Final residual = 0, No Iterations 0
DILUPBiCGStab:  Solving for e, Initial residual = 0.153809, Final residual = 1.47854e-09, No Iterations 4
GAMG:  Solving for p_rgh, Initial residual = 0.0706741, Final residual = 0.000454198, No Iterations 4
diagonal:  Solving for rho, Initial residual = 0, Final residual = 0, No Iterations 0
time step continuity errors : sum local = 7.7742e-16, global = 1.25001e-17, cumulative = 3.55309e-16
GAMG:  Solving for p_rgh, Initial residual = 0.0740977, Final residual = 4.43506e-09, No Iterations 14
diagonal:  Solving for rho, Initial residual = 0, Final residual = 0, No Iterations 0
time step continuity errors : sum local = 5.3515e-17, global = 5.94748e-18, cumulative = 3.61256e-16
ExecutionTime = 1.42 s  ClockTime = 2 s

Courant Number mean: 1.38135e-09 max: 4.6994e-09
Time = 0.35

diagonal:  Solving for rho, Initial residual = 0, Final residual = 0, No Iterations 0
DILUPBiCGStab:  Solving for e, Initial residual = 0.152467, Final residual = 1.24799e-09, No Iterations 4
GAMG:  Solving for p_rgh, Initial residual = 0.0706721, Final residual = 0.000453541, No Iterations 4
diagonal:  Solving for rho, Initial residual = 0, Final residual = 0, No Iterations 0
time step continuity errors : sum local = 7.56208e-16, global = 8.66345e-18, cumulative = 3.6992e-16
GAMG:  Solving for p_rgh, Initial residual = 0.0740947, Final residual = 5.56453e-09, No Iterations 14
diagonal:  Solving for rho, Initial residual = 0, Final residual = 0, No Iterations 0
time step continuity errors : sum local = 5.6032e-17, global = 4.1055e-18, cumulative = 3.74025e-16
ExecutionTime = 1.44 s  ClockTime = 2 s

Courant Number mean: 1.34534e-09 max: 4.57456e-09
Time = 0.355

diagonal:  Solving for rho, Initial residual = 0, Final residual = 0, No Iterations 0
DILUPBiCGStab:  Solving for e, Initial residual = 0.154921, Final residual = 1.24155e-09, No Iterations 4
GAMG:  Solving for p_rgh, Initial residual = 0.070656, Final residual = 0.000454159, No Iterations 4
diagonal:  Solving for rho, Initial residual = 0, Final residual = 0, No Iterations 0
time step continuity errors : sum local = 7.35114e-16, global = 6.22795e-18, cumulative = 3.80253e-16
GAMG:  Solving for p_rgh, Initial residual = 0.0740846, Final residual = 6.38852e-09, No Iterations 15
diagonal:  Solving for rho, Initial residual = 0, Final residual = 0, No Iterations 0
time step continuity errors : sum local = 5.63326e-17, global = 2.30687e-18, cumulative = 3.8256e-16
ExecutionTime = 1.46 s  ClockTime = 2 s

Courant Number mean: 1.31035e-09 max: 4.45303e-09
Time = 0.36

diagonal:  Solving for rho, Initial residual = 0, Final residual = 0, No Iterations 0
DILUPBiCGStab:  Solving for e, Initial residual = 0.15016, Final residual = 1.42003e-09, No Iterations 4
GAMG:  Solving for p_rgh, Initial residual = 0.0706511, Final residual = 0.000454002, No Iterations 4
diagonal:  Solving for rho, Initial residual = 0, Final residual = 0, No Iterations 0
time step continuity errors : sum local = 7.09677e-16, global = 9.58572e-18, cumulative = 3.92146e-16
GAMG:  Solving for p_rgh, Initial residual = 0.0740737, Final residual = 9.65316e-09, No Iterations 14
diagonal:  Solving for rho, Initial residual = 0, Final residual = 0, No Iterations 0
time step continuity errors : sum local = 5.47737e-17, global = 4.04386e-18, cumulative = 3.9619e-16
ExecutionTime = 1.48 s  ClockTime = 2 s

Courant Number mean: 1.27635e-09 max: 4.33472e-09
Time = 0.365

diagonal:  Solving for rho, Initial residual = 0, Final residual = 0, No Iterations 0
DILUPBiCGStab:  Solving for e, Initial residual = 0.151139, Final residual = 1.47906e-09, No Iterations 4
GAMG:  Solving for p_rgh, Initial residual = 0.0706443, Final residual = 0.000453659, No Iterations 4
diagonal:  Solving for rho, Initial residual = 0, Final residual = 0, No Iterations 0
time step continuity errors : sum local = 6.94373e-16, global = 8.93856e-18, cumulative = 4.05128e-16
GAMG:  Solving for p_rgh, Initial residual = 0.074066, Final residual = 3.96837e-09, No Iterations 15
diagonal:  Solving for rho, Initial residual = 0, Final residual = 0, No Iterations 0
time step continuity errors : sum local = 5.58797e-17, global = 1.34858e-18, cumulative = 4.06477e-16
ExecutionTime = 1.5 s  ClockTime = 2 s

Courant Number mean: 1.2433e-09 max: 4.22212e-09
Time = 0.37

diagonal:  Solving for rho, Initial residual = 0, Final residual = 0, No Iterations 0
DILUPBiCGStab:  Solving for e, Initial residual = 0.152106, Final residual = 1.55514e-09, No Iterations 4
GAMG:  Solving for p_rgh, Initial residual = 0.0706332, Final residual = 0.000453268, No Iterations 4
diagonal:  Solving for rho, Initial residual = 0, Final residual = 0, No Iterations 0
time step continuity errors : sum local = 6.70851e-16, global = 1.41843e-17, cumulative = 4.20661e-16
GAMG:  Solving for p_rgh, Initial residual = 0.074051, Final residual = 4.01303e-09, No Iterations 14
diagonal:  Solving for rho, Initial residual = 0, Final residual = 0, No Iterations 0
time step continuity errors : sum local = 5.26891e-17, global = 6.25418e-18, cumulative = 4.26915e-16
ExecutionTime = 1.5 s  ClockTime = 2 s

Courant Number mean: 1.21117e-09 max: 4.11248e-09
Time = 0.375

diagonal:  Solving for rho, Initial residual = 0, Final residual = 0, No Iterations 0
DILUPBiCGStab:  Solving for e, Initial residual = 0.148103, Final residual = 1.58604e-09, No Iterations 4
GAMG:  Solving for p_rgh, Initial residual = 0.0706325, Final residual = 0.00045182, No Iterations 4
diagonal:  Solving for rho, Initial residual = 0, Final residual = 0, No Iterations 0
time step continuity errors : sum local = 6.47885e-16, global = 1.55337e-17, cumulative = 4.42449e-16
GAMG:  Solving for p_rgh, Initial residual = 0.0740476, Final residual = 4.84228e-09, No Iterations 14
diagonal:  Solving for rho, Initial residual = 0, Final residual = 0, No Iterations 0
time step continuity errors : sum local = 5.25111e-17, global = 5.27988e-18, cumulative = 4.47729e-16
ExecutionTime = 1.53 s  ClockTime = 2 s

Courant Number mean: 1.17994e-09 max: 4.00572e-09
Time = 0.38

diagonal:  Solving for rho, Initial residual = 0, Final residual = 0, No Iterations 0
DILUPBiCGStab:  Solving for e, Initial residual = 0.151081, Final residual = 1.27223e-09, No Iterations 4
GAMG:  Solving for p_rgh, Initial residual = 0.0706162, Final residual = 0.000451882, No Iterations 4
diagonal:  Solving for rho, Initial residual = 0, Final residual = 0, No Iterations 0
time step continuity errors : sum local = 6.27957e-16, global = 1.52664e-17, cumulative = 4.62995e-16
GAMG:  Solving for p_rgh, Initial residual = 0.0740391, Final residual = 6.1573e-09, No Iterations 14
diagonal:  Solving for rho, Initial residual = 0, Final residual = 0, No Iterations 0
time step continuity errors : sum local = 5.35707e-17, global = 5.88103e-18, cumulative = 4.68876e-16
ExecutionTime = 1.55 s  ClockTime = 2 s

Courant Number mean: 1.14957e-09 max: 3.90175e-09
Time = 0.385

diagonal:  Solving for rho, Initial residual = 0, Final residual = 0, No Iterations 0
DILUPBiCGStab:  Solving for e, Initial residual = 0.150328, Final residual = 8.90435e-09, No Iterations 3
GAMG:  Solving for p_rgh, Initial residual = 0.0706197, Final residual = 0.000451979, No Iterations 4
diagonal:  Solving for rho, Initial residual = 0, Final residual = 0, No Iterations 0
time step continuity errors : sum local = 6.15362e-16, global = 1.18767e-17, cumulative = 4.80753e-16
GAMG:  Solving for p_rgh, Initial residual = 0.0740375, Final residual = 4.43618e-09, No Iterations 15
diagonal:  Solving for rho, Initial residual = 0, Final residual = 0, No Iterations 0
time step continuity errors : sum local = 5.5379e-17, global = 3.85091e-18, cumulative = 4.84604e-16
ExecutionTime = 1.57 s  ClockTime = 2 s

Courant Number mean: 1.12004e-09 max: 3.80052e-09
Time = 0.39

diagonal:  Solving for rho, Initial residual = 0, Final residual = 0, No Iterations 0
DILUPBiCGStab:  Solving for e, Initial residual = 0.152401, Final residual = 1.28253e-09, No Iterations 4
GAMG:  Solving for p_rgh, Initial residual = 0.0706049, Final residual = 0.000452513, No Iterations 4
diagonal:  Solving for rho, Initial residual = 0, Final residual = 0, No Iterations 0
time step continuity errors : sum local = 5.99023e-16, global = 1.3171e-17, cumulative = 4.97775e-16
GAMG:  Solving for p_rgh, Initial residual = 0.0740272, Final residual = 4.76204e-09, No Iterations 15
diagonal:  Solving for rho, Initial residual = 0, Final residual = 0, No Iterations 0
time step continuity errors : sum local = 5.36819e-17, global = 6.35145e-18, cumulative = 5.04126e-16
ExecutionTime = 1.58 s  ClockTime = 2 s

Courant Number mean: 1.09133e-09 max: 3.70194e-09
Time = 0.395

diagonal:  Solving for rho, Initial residual = 0, Final residual = 0, No Iterations 0
DILUPBiCGStab:  Solving for e, Initial residual = 0.153075, Final residual = 1.09971e-09, No Iterations 4
GAMG:  Solving for p_rgh, Initial residual = 0.0706088, Final residual = 0.00045201, No Iterations 4
diagonal:  Solving for rho, Initial residual = 0, Final residual = 0, No Iterations 0
time step continuity errors : sum local = 5.81784e-16, global = 1.22932e-17, cumulative = 5.16419e-16
GAMG:  Solving for p_rgh, Initial residual = 0.074024, Final residual = 9.03396e-09, No Iterations 14
diagonal:  Solving for rho, Initial residual = 0, Final residual = 0, No Iterations 0
time step continuity errors : sum local = 5.49721e-17, global = 4.45135e-18, cumulative = 5.20871e-16
ExecutionTime = 1.6 s  ClockTime = 2 s

Courant Number mean: 1.06344e-09 max: 3.60596e-09
Time = 0.4

diagonal:  Solving for rho, Initial residual = 0, Final residual = 0, No Iterations 0
DILUPBiCGStab:  Solving for e, Initial residual = 0.148527, Final residual = 1.33201e-09, No Iterations 4
GAMG:  Solving for p_rgh, Initial residual = 0.070603, Final residual = 0.000451564, No Iterations 4
diagonal:  Solving for rho, Initial residual = 0, Final residual = 0, No Iterations 0
time step continuity errors : sum local = 5.64396e-16, global = 1.57466e-17, cumulative = 5.36617e-16
GAMG:  Solving for p_rgh, Initial residual = 0.0740156, Final residual = 4.98061e-09, No Iterations 15
diagonal:  Solving for rho, Initial residual = 0, Final residual = 0, No Iterations 0
time step continuity errors : sum local = 5.30681e-17, global = 5.35913e-18, cumulative = 5.41977e-16
ExecutionTime = 1.64 s  ClockTime = 2 s

Courant Number mean: 1.03631e-09 max: 3.5125e-09
Time = 0.405

diagonal:  Solving for rho, Initial residual = 0, Final residual = 0, No Iterations 0
DILUPBiCGStab:  Solving for e, Initial residual = 0.146328, Final residual = 9.36471e-10, No Iterations 4
GAMG:  Solving for p_rgh, Initial residual = 0.0705977, Final residual = 0.000451257, No Iterations 4
diagonal:  Solving for rho, Initial residual = 0, Final residual = 0, No Iterations 0
time step continuity errors : sum local = 5.49955e-16, global = 1.45475e-17, cumulative = 5.56524e-16
GAMG:  Solving for p_rgh, Initial residual = 0.0740095, Final residual = 9.22794e-09, No Iterations 13
diagonal:  Solving for rho, Initial residual = 0, Final residual = 0, No Iterations 0
time step continuity errors : sum local = 5.51471e-17, global = 5.5837e-18, cumulative = 5.62108e-16
ExecutionTime = 1.66 s  ClockTime = 2 s

Courant Number mean: 1.00995e-09 max: 3.4215e-09
Time = 0.41

diagonal:  Solving for rho, Initial residual = 0, Final residual = 0, No Iterations 0
DILUPBiCGStab:  Solving for e, Initial residual = 0.145898, Final residual = 1.16754e-09, No Iterations 4
GAMG:  Solving for p_rgh, Initial residual = 0.0705865, Final residual = 0.000451269, No Iterations 4
diagonal:  Solving for rho, Initial residual = 0, Final residual = 0, No Iterations 0
time step continuity errors : sum local = 5.33361e-16, global = 1.69571e-17, cumulative = 5.79065e-16
GAMG:  Solving for p_rgh, Initial residual = 0.0739874, Final residual = 6.91559e-09, No Iterations 14
diagonal:  Solving for rho, Initial residual = 0, Final residual = 0, No Iterations 0
time step continuity errors : sum local = 5.23235e-17, global = 5.18292e-18, cumulative = 5.84248e-16
ExecutionTime = 1.68 s  ClockTime = 2 s

Courant Number mean: 9.84321e-10 max: 3.3329e-09
Time = 0.415

diagonal:  Solving for rho, Initial residual = 0, Final residual = 0, No Iterations 0
DILUPBiCGStab:  Solving for e, Initial residual = 0.146408, Final residual = 1.55984e-09, No Iterations 4
GAMG:  Solving for p_rgh, Initial residual = 0.070567, Final residual = 0.000450695, No Iterations 4
diagonal:  Solving for rho, Initial residual = 0, Final residual = 0, No Iterations 0
time step continuity errors : sum local = 5.17e-16, global = 1.51356e-17, cumulative = 5.99383e-16
GAMG:  Solving for p_rgh, Initial residual = 0.073953, Final residual = 9.7767e-09, No Iterations 13
diagonal:  Solving for rho, Initial residual = 0, Final residual = 0, No Iterations 0
[...]
diagonal:  Solving for rho, Initial residual = 0, Final residual = 0, No Iterations 0
time step continuity errors : sum local = 3.66646e-17, global = 2.67185e-18, cumulative = 4.36499e-15
GAMG:  Solving for p_rgh, Initial residual = 0.069111, Final residual = 2.49879e-06, No Iterations 1000
diagonal:  Solving for rho, Initial residual = 0, Final residual = 0, No Iterations 0
time step continuity errors : sum local = 3.6639e-17, global = 2.69743e-18, cumulative = 4.36768e-15
ExecutionTime = 163.54 s  ClockTime = 164 s

Courant Number mean: 1.81933e-12 max: 5.84188e-12
Time = 2.395

diagonal:  Solving for rho, Initial residual = 0, Final residual = 0, No Iterations 0
DILUPBiCGStab:  Solving for e, Initial residual = 0.0615808, Final residual = 5.26508e-09, No Iterations 3
GAMG:  Solving for p_rgh, Initial residual = 0.106991, Final residual = 0.000149802, No Iterations 4
diagonal:  Solving for rho, Initial residual = 0, Final residual = 0, No Iterations 0
time step continuity errors : sum local = 4.10776e-17, global = 2.63349e-18, cumulative = 4.37032e-15
GAMG:  Solving for p_rgh, Initial residual = 0.06988, Final residual = 2.58662e-06, No Iterations 1000
diagonal:  Solving for rho, Initial residual = 0, Final residual = 0, No Iterations 0
time step continuity errors : sum local = 4.10264e-17, global = 2.68465e-18, cumulative = 4.373e-15
ExecutionTime = 164 s  ClockTime = 164 s

Courant Number mean: 1.79556e-12 max: 5.76276e-12
Time = 2.4

diagonal:  Solving for rho, Initial residual = 0, Final residual = 0, No Iterations 0
DILUPBiCGStab:  Solving for e, Initial residual = 0.0637344, Final residual = 3.59732e-09, No Iterations 3
GAMG:  Solving for p_rgh, Initial residual = 0.106914, Final residual = 0.000150613, No Iterations 4
diagonal:  Solving for rho, Initial residual = 0, Final residual = 0, No Iterations 0
time step continuity errors : sum local = 3.6734e-17, global = 3.34863e-18, cumulative = 4.37635e-15
GAMG:  Solving for p_rgh, Initial residual = 0.0688624, Final residual = 2.65256e-06, No Iterations 1000
diagonal:  Solving for rho, Initial residual = 0, Final residual = 0, No Iterations 0
time step continuity errors : sum local = 3.66828e-17, global = 3.39979e-18, cumulative = 4.37975e-15
ExecutionTime = 164.46 s  ClockTime = 165 s

Courant Number mean: 1.77209e-12 max: 5.68512e-12
Time = 2.405

diagonal:  Solving for rho, Initial residual = 0, Final residual = 0, No Iterations 0
DILUPBiCGStab:  Solving for e, Initial residual = 0.063207, Final residual = 5.42019e-09, No Iterations 3
GAMG:  Solving for p_rgh, Initial residual = 0.108148, Final residual = 0.000741362, No Iterations 3
diagonal:  Solving for rho, Initial residual = 0, Final residual = 0, No Iterations 0
time step continuity errors : sum local = 3.86842e-17, global = 1.39117e-18, cumulative = 4.38114e-15
GAMG:  Solving for p_rgh, Initial residual = 0.069659, Final residual = 2.65808e-06, No Iterations 1000
diagonal:  Solving for rho, Initial residual = 0, Final residual = 0, No Iterations 0
time step continuity errors : sum local = 3.88475e-17, global = 9.54394e-19, cumulative = 4.3821e-15
ExecutionTime = 164.91 s  ClockTime = 165 s

Courant Number mean: 1.74893e-12 max: 5.60842e-12
Time = 2.41

diagonal:  Solving for rho, Initial residual = 0, Final residual = 0, No Iterations 0
DILUPBiCGStab:  Solving for e, Initial residual = 0.063157, Final residual = 7.38265e-09, No Iterations 3
GAMG:  Solving for p_rgh, Initial residual = 0.110677, Final residual = 0.000311583, No Iterations 4
diagonal:  Solving for rho, Initial residual = 0, Final residual = 0, No Iterations 0
time step continuity errors : sum local = 3.74477e-17, global = 3.69664e-18, cumulative = 4.38579e-15
GAMG:  Solving for p_rgh, Initial residual = 0.0718879, Final residual = 2.73618e-06, No Iterations 1000
diagonal:  Solving for rho, Initial residual = 0, Final residual = 0, No Iterations 0
time step continuity errors : sum local = 3.74989e-17, global = 3.74779e-18, cumulative = 4.38954e-15
ExecutionTime = 165.36 s  ClockTime = 166 s

Courant Number mean: 1.7261e-12 max: 5.53285e-12
Time = 2.415

diagonal:  Solving for rho, Initial residual = 0, Final residual = 0, No Iterations 0
DILUPBiCGStab:  Solving for e, Initial residual = 0.0620017, Final residual = 5.27706e-09, No Iterations 3
GAMG:  Solving for p_rgh, Initial residual = 0.106173, Final residual = 0.000135556, No Iterations 4
diagonal:  Solving for rho, Initial residual = 0, Final residual = 0, No Iterations 0
time step continuity errors : sum local = 3.93279e-17, global = 9.38802e-19, cumulative = 4.39048e-15
GAMG:  Solving for p_rgh, Initial residual = 0.0703894, Final residual = 2.70829e-06, No Iterations 1000
diagonal:  Solving for rho, Initial residual = 0, Final residual = 0, No Iterations 0
time step continuity errors : sum local = 3.93535e-17, global = 9.13223e-19, cumulative = 4.39139e-15
ExecutionTime = 165.81 s  ClockTime = 166 s

Courant Number mean: 1.70353e-12 max: 5.4581e-12
Time = 2.42

diagonal:  Solving for rho, Initial residual = 0, Final residual = 0, No Iterations 0
DILUPBiCGStab:  Solving for e, Initial residual = 0.0630169, Final residual = 8.26866e-09, No Iterations 3
GAMG:  Solving for p_rgh, Initial residual = 0.10914, Final residual = 0.000598285, No Iterations 4
diagonal:  Solving for rho, Initial residual = 0, Final residual = 0, No Iterations 0
time step continuity errors : sum local = 3.8187e-17, global = 5.05488e-18, cumulative = 4.39645e-15
GAMG:  Solving for p_rgh, Initial residual = 0.0709697, Final residual = 2.7117e-06, No Iterations 1000
diagonal:  Solving for rho, Initial residual = 0, Final residual = 0, No Iterations 0
time step continuity errors : sum local = 3.82894e-17, global = 5.1572e-18, cumulative = 4.4016e-15
ExecutionTime = 166.25 s  ClockTime = 167 s

Courant Number mean: 1.68131e-12 max: 5.38452e-12
Time = 2.425

diagonal:  Solving for rho, Initial residual = 0, Final residual = 0, No Iterations 0
DILUPBiCGStab:  Solving for e, Initial residual = 0.0618092, Final residual = 6.78227e-09, No Iterations 3
GAMG:  Solving for p_rgh, Initial residual = 0.107896, Final residual = 0.0005274, No Iterations 4
diagonal:  Solving for rho, Initial residual = 0, Final residual = 0, No Iterations 0
time step continuity errors : sum local = 3.70723e-17, global = 3.6344e-18, cumulative = 4.40524e-15
GAMG:  Solving for p_rgh, Initial residual = 0.0684864, Final residual = 2.77664e-06, No Iterations 1000
diagonal:  Solving for rho, Initial residual = 0, Final residual = 0, No Iterations 0
time step continuity errors : sum local = 3.69955e-17, global = 3.71114e-18, cumulative = 4.40895e-15
ExecutionTime = 166.72 s  ClockTime = 167 s

Courant Number mean: 1.65933e-12 max: 5.31177e-12
Time = 2.43

diagonal:  Solving for rho, Initial residual = 0, Final residual = 0, No Iterations 0
DILUPBiCGStab:  Solving for e, Initial residual = 0.0627609, Final residual = 8.66429e-09, No Iterations 3
GAMG:  Solving for p_rgh, Initial residual = 0.111843, Final residual = 0.000434429, No Iterations 4
diagonal:  Solving for rho, Initial residual = 0, Final residual = 0, No Iterations 0
time step continuity errors : sum local = 3.94227e-17, global = 1.80332e-18, cumulative = 4.41075e-15
GAMG:  Solving for p_rgh, Initial residual = 0.0716008, Final residual = 2.82933e-06, No Iterations 1000
diagonal:  Solving for rho, Initial residual = 0, Final residual = 0, No Iterations 0
time step continuity errors : sum local = 3.94483e-17, global = 1.77774e-18, cumulative = 4.41253e-15
ExecutionTime = 167.15 s  ClockTime = 167 s

Courant Number mean: 1.63766e-12 max: 5.24028e-12
Time = 2.435

diagonal:  Solving for rho, Initial residual = 0, Final residual = 0, No Iterations 0
DILUPBiCGStab:  Solving for e, Initial residual = 0.0645079, Final residual = 6.86012e-09, No Iterations 3
GAMG:  Solving for p_rgh, Initial residual = 0.111422, Final residual = 0.000283916, No Iterations 4
diagonal:  Solving for rho, Initial residual = 0, Final residual = 0, No Iterations 0
time step continuity errors : sum local = 3.74955e-17, global = 2.32768e-18, cumulative = 4.41486e-15
GAMG:  Solving for p_rgh, Initial residual = 0.0690878, Final residual = 2.9309e-06, No Iterations 1000
diagonal:  Solving for rho, Initial residual = 0, Final residual = 0, No Iterations 0
time step continuity errors : sum local = 3.74955e-17, global = 2.43e-18, cumulative = 4.41729e-15
ExecutionTime = 167.61 s  ClockTime = 168 s

Courant Number mean: 1.61629e-12 max: 5.16943e-12
Time = 2.44

diagonal:  Solving for rho, Initial residual = 0, Final residual = 0, No Iterations 0
DILUPBiCGStab:  Solving for e, Initial residual = 0.0630483, Final residual = 5.92312e-09, No Iterations 3
GAMG:  Solving for p_rgh, Initial residual = 0.112327, Final residual = 0.000967017, No Iterations 3
diagonal:  Solving for rho, Initial residual = 0, Final residual = 0, No Iterations 0
time step continuity errors : sum local = 4.04065e-17, global = -1.00939e-18, cumulative = 4.41628e-15
GAMG:  Solving for p_rgh, Initial residual = 0.0716685, Final residual = 2.81531e-06, No Iterations 1000
diagonal:  Solving for rho, Initial residual = 0, Final residual = 0, No Iterations 0
time step continuity errors : sum local = 4.02432e-17, global = -1.12152e-18, cumulative = 4.41516e-15
ExecutionTime = 168.05 s  ClockTime = 168 s

Courant Number mean: 1.59515e-12 max: 5.09972e-12
Time = 2.445

diagonal:  Solving for rho, Initial residual = 0, Final residual = 0, No Iterations 0
DILUPBiCGStab:  Solving for e, Initial residual = 0.0616072, Final residual = 5.83026e-09, No Iterations 3
GAMG:  Solving for p_rgh, Initial residual = 0.111895, Final residual = 0.000523944, No Iterations 4
diagonal:  Solving for rho, Initial residual = 0, Final residual = 0, No Iterations 0
time step continuity errors : sum local = 3.72405e-17, global = 3.37771e-18, cumulative = 4.41854e-15
GAMG:  Solving for p_rgh, Initial residual = 0.070655, Final residual = 2.96778e-06, No Iterations 1000
diagonal:  Solving for rho, Initial residual = 0, Final residual = 0, No Iterations 0
time step continuity errors : sum local = 3.72405e-17, global = 3.37771e-18, cumulative = 4.42191e-15
ExecutionTime = 168.52 s  ClockTime = 169 s

Courant Number mean: 1.57435e-12 max: 5.03106e-12
Time = 2.45

diagonal:  Solving for rho, Initial residual = 0, Final residual = 0, No Iterations 0
DILUPBiCGStab:  Solving for e, Initial residual = 0.0624601, Final residual = 5.44958e-09, No Iterations 3
GAMG:  Solving for p_rgh, Initial residual = 0.112969, Final residual = 0.000513809, No Iterations 4
diagonal:  Solving for rho, Initial residual = 0, Final residual = 0, No Iterations 0
time step continuity errors : sum local = 3.78568e-17, global = 5.46344e-18, cumulative = 4.42738e-15
GAMG:  Solving for p_rgh, Initial residual = 0.0712115, Final residual = 2.95601e-06, No Iterations 1000
diagonal:  Solving for rho, Initial residual = 0, Final residual = 0, No Iterations 0
time step continuity errors : sum local = 3.78568e-17, global = 5.46344e-18, cumulative = 4.43284e-15
ExecutionTime = 168.96 s  ClockTime = 169 s

Courant Number mean: 1.5538e-12 max: 4.96325e-12
Time = 2.455

diagonal:  Solving for rho, Initial residual = 0, Final residual = 0, No Iterations 0
DILUPBiCGStab:  Solving for e, Initial residual = 0.0620517, Final residual = 7.21135e-09, No Iterations 3
GAMG:  Solving for p_rgh, Initial residual = 0.114641, Final residual = 0.000350798, No Iterations 4
diagonal:  Solving for rho, Initial residual = 0, Final residual = 0, No Iterations 0
time step continuity errors : sum local = 3.81913e-17, global = 1.57741e-18, cumulative = 4.43442e-15
GAMG:  Solving for p_rgh, Initial residual = 0.0702352, Final residual = 2.90747e-06, No Iterations 1000
diagonal:  Solving for rho, Initial residual = 0, Final residual = 0, No Iterations 0
time step continuity errors : sum local = 3.82424e-17, global = 1.52625e-18, cumulative = 4.43594e-15
ExecutionTime = 169.42 s  ClockTime = 170 s

Courant Number mean: 1.53349e-12 max: 4.89623e-12
Time = 2.46

diagonal:  Solving for rho, Initial residual = 0, Final residual = 0, No Iterations 0
DILUPBiCGStab:  Solving for e, Initial residual = 0.0616284, Final residual = 5.86458e-09, No Iterations 3
GAMG:  Solving for p_rgh, Initial residual = 0.118308, Final residual = 0.000615047, No Iterations 4
diagonal:  Solving for rho, Initial residual = 0, Final residual = 0, No Iterations 0
time step continuity errors : sum local = 3.81571e-17, global = 3.15985e-18, cumulative = 4.4391e-15
GAMG:  Solving for p_rgh, Initial residual = 0.0707679, Final residual = 3.03239e-06, No Iterations 1000
diagonal:  Solving for rho, Initial residual = 0, Final residual = 0, No Iterations 0
time step continuity errors : sum local = 3.80037e-17, global = 3.31332e-18, cumulative = 4.44242e-15
ExecutionTime = 169.86 s  ClockTime = 170 s

Courant Number mean: 1.51348e-12 max: 4.83033e-12
Time = 2.465

diagonal:  Solving for rho, Initial residual = 0, Final residual = 0, No Iterations 0
DILUPBiCGStab:  Solving for e, Initial residual = 0.0603789, Final residual = 5.25257e-09, No Iterations 3
GAMG:  Solving for p_rgh, Initial residual = 0.113227, Final residual = 0.000530093, No Iterations 4
diagonal:  Solving for rho, Initial residual = 0, Final residual = 0, No Iterations 0
time step continuity errors : sum local = 3.84374e-17, global = 1.15027e-18, cumulative = 4.44357e-15
GAMG:  Solving for p_rgh, Initial residual = 0.069302, Final residual = 3.0222e-06, No Iterations 1000
diagonal:  Solving for rho, Initial residual = 0, Final residual = 0, No Iterations 0
time step continuity errors : sum local = 3.83607e-17, global = 1.22701e-18, cumulative = 4.44479e-15
ExecutionTime = 170.31 s  ClockTime = 171 s

Courant Number mean: 1.49372e-12 max: 4.76502e-12
Time = 2.47

diagonal:  Solving for rho, Initial residual = 0, Final residual = 0, No Iterations 0
DILUPBiCGStab:  Solving for e, Initial residual = 0.0600491, Final residual = 6.84147e-09, No Iterations 3
GAMG:  Solving for p_rgh, Initial residual = 0.116297, Final residual = 0.000615366, No Iterations 4
diagonal:  Solving for rho, Initial residual = 0, Final residual = 0, No Iterations 0
time step continuity errors : sum local = 3.64329e-17, global = 4.51737e-18, cumulative = 4.44931e-15
GAMG:  Solving for p_rgh, Initial residual = 0.0713685, Final residual = 3.19256e-06, No Iterations 1000
diagonal:  Solving for rho, Initial residual = 0, Final residual = 0, No Iterations 0
time step continuity errors : sum local = 3.66041e-17, global = 4.48198e-18, cumulative = 4.45379e-15
ExecutionTime = 170.76 s  ClockTime = 171 s

Courant Number mean: 1.47424e-12 max: 4.70093e-12
Time = 2.475

diagonal:  Solving for rho, Initial residual = 0, Final residual = 0, No Iterations 0
DILUPBiCGStab:  Solving for e, Initial residual = 0.0614232, Final residual = 5.32e-09, No Iterations 3
GAMG:  Solving for p_rgh, Initial residual = 0.11742, Final residual = 0.000224674, No Iterations 4
diagonal:  Solving for rho, Initial residual = 0, Final residual = 0, No Iterations 0
time step continuity errors : sum local = 3.68808e-17, global = 4.8259e-18, cumulative = 4.45862e-15
GAMG:  Solving for p_rgh, Initial residual = 0.0685597, Final residual = 3.16676e-06, No Iterations 1000
diagonal:  Solving for rho, Initial residual = 0, Final residual = 0, No Iterations 0
time step continuity errors : sum local = 3.68808e-17, global = 4.8259e-18, cumulative = 4.46345e-15
ExecutionTime = 171.21 s  ClockTime = 172 s

Courant Number mean: 1.45499e-12 max: 4.63775e-12
Time = 2.48

diagonal:  Solving for rho, Initial residual = 0, Final residual = 0, No Iterations 0
DILUPBiCGStab:  Solving for e, Initial residual = 0.0613587, Final residual = 5.35102e-09, No Iterations 3
GAMG:  Solving for p_rgh, Initial residual = 0.11711, Final residual = 0.000529973, No Iterations 4
diagonal:  Solving for rho, Initial residual = 0, Final residual = 0, No Iterations 0
time step continuity errors : sum local = 3.70244e-17, global = 5.82684e-18, cumulative = 4.46927e-15
GAMG:  Solving for p_rgh, Initial residual = 0.0690801, Final residual = 3.26116e-06, No Iterations 1000
diagonal:  Solving for rho, Initial residual = 0, Final residual = 0, No Iterations 0
time step continuity errors : sum local = 3.69556e-17, global = 5.55142e-18, cumulative = 4.47482e-15
ExecutionTime = 171.65 s  ClockTime = 172 s

Courant Number mean: 1.436e-12 max: 4.57508e-12
Time = 2.485

diagonal:  Solving for rho, Initial residual = 0, Final residual = 0, No Iterations 0
DILUPBiCGStab:  Solving for e, Initial residual = 0.0621842, Final residual = 6.64587e-09, No Iterations 3
GAMG:  Solving for p_rgh, Initial residual = 0.116687, Final residual = 0.00037878, No Iterations 4
diagonal:  Solving for rho, Initial residual = 0, Final residual = 0, No Iterations 0
time step continuity errors : sum local = 3.66345e-17, global = 4.70409e-18, cumulative = 4.47953e-15
GAMG:  Solving for p_rgh, Initial residual = 0.0696487, Final residual = 3.18689e-06, No Iterations 1000
diagonal:  Solving for rho, Initial residual = 0, Final residual = 0, No Iterations 0
time step continuity errors : sum local = 3.65834e-17, global = 4.75525e-18, cumulative = 4.48428e-15
ExecutionTime = 172.09 s  ClockTime = 172 s

Courant Number mean: 1.41726e-12 max: 4.5134e-12
Time = 2.49

diagonal:  Solving for rho, Initial residual = 0, Final residual = 0, No Iterations 0
DILUPBiCGStab:  Solving for e, Initial residual = 0.0610169, Final residual = 3.89677e-09, No Iterations 3
GAMG:  Solving for p_rgh, Initial residual = 0.118726, Final residual = 0.000430187, No Iterations 4
diagonal:  Solving for rho, Initial residual = 0, Final residual = 0, No Iterations 0
time step continuity errors : sum local = 3.88415e-17, global = 6.78955e-18, cumulative = 4.49107e-15
GAMG:  Solving for p_rgh, Initial residual = 0.0707857, Final residual = 3.30392e-06, No Iterations 1000
diagonal:  Solving for rho, Initial residual = 0, Final residual = 0, No Iterations 0
time step continuity errors : sum local = 3.88415e-17, global = 6.78955e-18, cumulative = 4.49786e-15
ExecutionTime = 172.53 s  ClockTime = 173 s

Courant Number mean: 1.39877e-12 max: 4.45265e-12
Time = 2.495

diagonal:  Solving for rho, Initial residual = 0, Final residual = 0, No Iterations 0
DILUPBiCGStab:  Solving for e, Initial residual = 0.0623496, Final residual = 5.79903e-09, No Iterations 3
GAMG:  Solving for p_rgh, Initial residual = 0.123894, Final residual = 0.000908795, No Iterations 3
diagonal:  Solving for rho, Initial residual = 0, Final residual = 0, No Iterations 0
time step continuity errors : sum local = 3.83513e-17, global = 4.99543e-18, cumulative = 4.50286e-15
GAMG:  Solving for p_rgh, Initial residual = 0.07008, Final residual = 3.27485e-06, No Iterations 1000
diagonal:  Solving for rho, Initial residual = 0, Final residual = 0, No Iterations 0
time step continuity errors : sum local = 3.83002e-17, global = 5.04659e-18, cumulative = 4.5079e-15
ExecutionTime = 172.98 s  ClockTime = 173 s

Courant Number mean: 1.38051e-12 max: 4.39242e-12
Time = 2.5

diagonal:  Solving for rho, Initial residual = 0, Final residual = 0, No Iterations 0
DILUPBiCGStab:  Solving for e, Initial residual = 0.0633035, Final residual = 7.7616e-09, No Iterations 3
GAMG:  Solving for p_rgh, Initial residual = 0.12338, Final residual = 0.000517439, No Iterations 4
diagonal:  Solving for rho, Initial residual = 0, Final residual = 0, No Iterations 0
time step continuity errors : sum local = 3.96095e-17, global = 5.56987e-18, cumulative = 4.51347e-15
GAMG:  Solving for p_rgh, Initial residual = 0.0712674, Final residual = 3.42451e-06, No Iterations 1000
diagonal:  Solving for rho, Initial residual = 0, Final residual = 0, No Iterations 0
time step continuity errors : sum local = 3.96606e-17, global = 5.62103e-18, cumulative = 4.51909e-15
ExecutionTime = 173.44 s  ClockTime = 174 s

End

