/*---------------------------------------------------------------------------*\
  =========                 |
  \\      /  F ield         | OpenFOAM: The Open Source CFD Toolbox
   \\    /   O peration     | Website:  https://openfoam.org
    \\  /    A nd           | Version:  7
     \\/     M anipulation  |
\*---------------------------------------------------------------------------*/
Build  : 7-7dc73e32f723
Exec   : blockMesh
Date   : Nov 06 2020
Time   : 14:39:15
Host   : "DESKTOP-VSJ4QNK"
PID    : 38701
I/O    : uncollated
Case   : /home/anoldfriend/OpenFOAM/anoldfriend-7/run/trainning/debugLapacianSolver
nProcs : 1
sigFpe : Enabling floating point exception trapping (FOAM_SIGFPE).
fileModificationChecking : Monitoring run-time modified files using timeStampMaster (fileModificationSkew 10)
allowSystemOperations : Allowing user-supplied system call operations

// * * * * * * * * * * * * * * * * * * * * * * * * * * * * * * * * * * * * * //
Create time

Deleting polyMesh directory
    "/home/anoldfriend/OpenFOAM/anoldfriend-7/run/trainning/debugLapacianSolver/constant/polyMesh"
Creating block mesh from
    "/home/anoldfriend/OpenFOAM/anoldfriend-7/run/trainning/debugLapacianSolver/system/blockMeshDict"
Creating block edges
No non-planar block faces defined
Creating topology blocks
Creating topology patches

Creating block mesh topology

Check topology

	Basic statistics
		Number of internal faces : 0
		Number of boundary faces : 6
		Number of defined boundary faces : 6
		Number of undefined boundary faces : 0
	Checking patch -> block consistency

Creating block offsets
Creating merge list .

Creating polyMesh from blockMesh
Creating patches
Creating cells
Creating points with scale 0.1
    Block 0 cell size :
        i : 0.1
        j : 0.1
        k : 0.1

Writing polyMesh
----------------
Mesh Information
----------------
  boundingBox: (-0.25 -0.05 -0.05) (0.25 0.05 0.05)
  nPoints: 24
  nCells: 5
  nFaces: 26
  nInternalFaces: 4
----------------
Patches
----------------
  patch 0 (start: 4 size: 1) name: left
  patch 1 (start: 5 size: 1) name: right
  patch 2 (start: 6 size: 20) name: empty

End

/*---------------------------------------------------------------------------*\
  =========                 |
  \\      /  F ield         | OpenFOAM: The Open Source CFD Toolbox
   \\    /   O peration     | Website:  https://openfoam.org
    \\  /    A nd           | Version:  7
     \\/     M anipulation  |
\*---------------------------------------------------------------------------*/
Build  : 7-7dc73e32f723
Exec   : laplacianFoam
Date   : Nov 06 2020
Time   : 14:39:15
Host   : "DESKTOP-VSJ4QNK"
PID    : 38703
I/O    : uncollated
Case   : /home/anoldfriend/OpenFOAM/anoldfriend-7/run/trainning/debugLapacianSolver
nProcs : 1
sigFpe : Enabling floating point exception trapping (FOAM_SIGFPE).
fileModificationChecking : Monitoring run-time modified files using timeStampMaster (fileModificationSkew 10)
allowSystemOperations : Allowing user-supplied system call operations

// * * * * * * * * * * * * * * * * * * * * * * * * * * * * * * * * * * * * * //
Create time

Create mesh for time = 0


SIMPLE: No convergence criteria found

Reading field T

Reading transportProperties

Reading diffusivity DT

No finite volume options present

Calculating temperature distribution

Time = 1

DICPCG:  Solving for T, Initial residual = 1, Final residual = 2.71051e-17, No Iterations 1
ExecutionTime = 0.03 s  ClockTime = 0 s

Time = 2

DICPCG:  Solving for T, Initial residual = 0.153397, Final residual = 2.83922e-17, No Iterations 1
ExecutionTime = 0.03 s  ClockTime = 0 s

Time = 3

DICPCG:  Solving for T, Initial residual = 0.0508983, Final residual = 1.57694e-17, No Iterations 1
ExecutionTime = 0.03 s  ClockTime = 0 s

Time = 4

DICPCG:  Solving for T, Initial residual = 0.0201111, Final residual = 3.16698e-18, No Iterations 1
ExecutionTime = 0.03 s  ClockTime = 0 s

Time = 5

DICPCG:  Solving for T, Initial residual = 0.00869567, Final residual = 5.15201e-19, No Iterations 1
ExecutionTime = 0.04 s  ClockTime = 0 s

Time = 6

DICPCG:  Solving for T, Initial residual = 0.00402292, Final residual = 3.29667e-19, No Iterations 1
ExecutionTime = 0.04 s  ClockTime = 0 s

Time = 7

DICPCG:  Solving for T, Initial residual = 0.00245544, Final residual = 3.39126e-19, No Iterations 1
ExecutionTime = 0.04 s  ClockTime = 0 s

Time = 8

DICPCG:  Solving for T, Initial residual = 0.00175464, Final residual = 2.64628e-19, No Iterations 1
ExecutionTime = 0.04 s  ClockTime = 0 s

Time = 9

DICPCG:  Solving for T, Initial residual = 0.00126829, Final residual = 1.90472e-19, No Iterations 1
ExecutionTime = 0.04 s  ClockTime = 0 s

Time = 10

DICPCG:  Solving for T, Initial residual = 0.000917469, Final residual = 9.52357e-20, No Iterations 1
ExecutionTime = 0.05 s  ClockTime = 0 s

End

