/*---------------------------------------------------------------------------*\
  =========                 |
  \\      /  F ield         | OpenFOAM: The Open Source CFD Toolbox
   \\    /   O peration     | Website:  https://openfoam.org
    \\  /    A nd           | Version:  7
     \\/     M anipulation  |
\*---------------------------------------------------------------------------*/
Build  : 7-7dc73e32f723
Exec   : blockMesh
Date   : Nov 30 2020
Time   : 16:48:15
Host   : "DESKTOP-VSJ4QNK"
PID    : 35396
I/O    : uncollated
Case   : /home/anoldfriend/OpenFOAM/anoldfriend-7/applications/test/singlePhaseDBS/couetteFlow
nProcs : 1
sigFpe : Enabling floating point exception trapping (FOAM_SIGFPE).
fileModificationChecking : Monitoring run-time modified files using timeStampMaster (fileModificationSkew 10)
allowSystemOperations : Allowing user-supplied system call operations

// * * * * * * * * * * * * * * * * * * * * * * * * * * * * * * * * * * * * * //
Create time

Creating block mesh from
    "/home/anoldfriend/OpenFOAM/anoldfriend-7/applications/test/singlePhaseDBS/couetteFlow/system/blockMeshDict"
Creating block edges
No non-planar block faces defined
Creating topology blocks
Creating topology patches

Creating block mesh topology

Check topology

	Basic statistics
		Number of internal faces : 0
		Number of boundary faces : 6
		Number of defined boundary faces : 6
		Number of undefined boundary faces : 0
	Checking patch -> block consistency

Creating block offsets
Creating merge list .

Creating polyMesh from blockMesh
Creating patches
Creating cells
Creating points with scale 0.1
    Block 0 cell size :
        i : 0.005 .. 0.005
        j : 0.00321429 .. 0.000329083
        k : 0.01

Detected cyclic patches; ordering boundary faces

Writing polyMesh
----------------
Mesh Information
----------------
  boundingBox: (0 0 0) (0.5 0.1 0.01)
  nPoints: 8282
  nCells: 4000
  nFaces: 16140
  nInternalFaces: 7860
----------------
Patches
----------------
  patch 0 (start: 7860 size: 40) name: velocity-inlet
  patch 1 (start: 7900 size: 40) name: velocity-outlet
  patch 2 (start: 7940 size: 100) name: bottom
  patch 3 (start: 8040 size: 100) name: top
  patch 4 (start: 8140 size: 8000) name: frontAndBack

End

/*---------------------------------------------------------------------------*\
  =========                 |
  \\      /  F ield         | OpenFOAM: The Open Source CFD Toolbox
   \\    /   O peration     | Website:  https://openfoam.org
    \\  /    A nd           | Version:  7
     \\/     M anipulation  |
\*---------------------------------------------------------------------------*/
Build  : 7-7dc73e32f723
Exec   : checkMesh
Date   : Nov 30 2020
Time   : 16:48:15
Host   : "DESKTOP-VSJ4QNK"
PID    : 35398
I/O    : uncollated
Case   : /home/anoldfriend/OpenFOAM/anoldfriend-7/applications/test/singlePhaseDBS/couetteFlow
nProcs : 1
sigFpe : Enabling floating point exception trapping (FOAM_SIGFPE).
fileModificationChecking : Monitoring run-time modified files using timeStampMaster (fileModificationSkew 10)
allowSystemOperations : Allowing user-supplied system call operations

// * * * * * * * * * * * * * * * * * * * * * * * * * * * * * * * * * * * * * //
Create time

Create polyMesh for time = 0

Time = 0

Mesh stats
    points:           8282
    internal points:  0
    faces:            16140
    internal faces:   7860
    cells:            4000
    faces per cell:   6
    boundary patches: 5
    point zones:      0
    face zones:       0
    cell zones:       0

Overall number of cells of each type:
    hexahedra:     4000
    prisms:        0
    wedges:        0
    pyramids:      0
    tet wedges:    0
    tetrahedra:    0
    polyhedra:     0

Checking topology...
    Boundary definition OK.
    Cell to face addressing OK.
    Point usage OK.
    Upper triangular ordering OK.
    Face vertices OK.
    Number of regions: 1 (OK).

Checking patch topology for multiply connected surfaces...
    Patch               Faces    Points   Surface topology                  
    velocity-inlet      40       82       ok (non-closed singly connected)  
    velocity-outlet     40       82       ok (non-closed singly connected)  
    bottom              100      202      ok (non-closed singly connected)  
    top                 100      202      ok (non-closed singly connected)  
    frontAndBack        8000     8282     ok (non-closed singly connected)  

Checking geometry...
    Overall domain bounding box (0 0 0) (0.5 0.1 0.01)
    Mesh has 2 geometric (non-empty/wedge) directions (1 1 0)
    Mesh has 2 solution (non-empty) directions (1 1 0)
    All edges aligned with or perpendicular to non-empty directions.
    Boundary openness (4.58683e-18 -6.65526e-18 5.33461e-17) OK.
    Max cell openness = 1.06989e-16 OK.
    Max aspect ratio = 15.1937 OK.
    Minimum face area = 1.64541e-06. Maximum face area = 5e-05.  Face area magnitudes OK.
    Min volume = 1.64541e-08. Max volume = 1.60714e-07.  Total volume = 0.0005.  Cell volumes OK.
    Mesh non-orthogonality Max: 0 average: 0
    Non-orthogonality check OK.
    Face pyramids OK.
    Max skewness = 1.0995e-13 OK.
    Coupled point location match (average 0) OK.

Mesh OK.

End

/*---------------------------------------------------------------------------*\
  =========                 |
  \\      /  F ield         | OpenFOAM: The Open Source CFD Toolbox
   \\    /   O peration     | Website:  https://openfoam.org
    \\  /    A nd           | Version:  7
     \\/     M anipulation  |
\*---------------------------------------------------------------------------*/
Build  : 7-7dc73e32f723
Exec   : /home/anoldfriend/OpenFOAM/anoldfriend-7/platforms/linux64GccDPInt32Opt/bin/icoDBSFoam
Date   : Nov 30 2020
Time   : 16:48:15
Host   : "DESKTOP-VSJ4QNK"
PID    : 35400
I/O    : uncollated
Case   : /home/anoldfriend/OpenFOAM/anoldfriend-7/applications/test/singlePhaseDBS/couetteFlow
nProcs : 1
sigFpe : Enabling floating point exception trapping (FOAM_SIGFPE).
fileModificationChecking : Monitoring run-time modified files using timeStampMaster (fileModificationSkew 10)
allowSystemOperations : Allowing user-supplied system call operations

// * * * * * * * * * * * * * * * * * * * * * * * * * * * * * * * * * * * * * //
Create time

Create mesh for time = 0

Reading transportProperties

Reading field p

Reading field U


Reading field porosity
create permeability filed


Reading g
Reading/calculating face flux field phi


Starting time loop

Reading set description:
    line

Time = 0.001

Courant Number mean: 0 max: 0
smoothSolver:  Solving for Ux, Initial residual = 1, Final residual = 8.52366e-07, No Iterations 19
smoothSolver:  Solving for Uy, Initial residual = 0, Final residual = 0, No Iterations 0
DICPCG:  Solving for p, Initial residual = 0.999998, Final residual = 0.0389692, No Iterations 33
time step continuity errors : sum local = 5.24923e-16, global = 3.61377e-24, cumulative = 3.61377e-24
DICPCG:  Solving for p, Initial residual = 0.634935, Final residual = 6.13755e-07, No Iterations 99
time step continuity errors : sum local = 1.33792e-20, global = -3.97887e-25, cumulative = 3.21588e-24
ExecutionTime = 0.18 s  ClockTime = 0 s

Time = 0.002

Courant Number mean: 2.06077e-06 max: 0.000169143
smoothSolver:  Solving for Ux, Initial residual = 0.00459915, Final residual = 5.92317e-07, No Iterations 13
smoothSolver:  Solving for Uy, Initial residual = 0.103202, Final residual = 9.06584e-07, No Iterations 16
DICPCG:  Solving for p, Initial residual = 0.638345, Final residual = 0.0317915, No Iterations 32
time step continuity errors : sum local = 9.47705e-16, global = 2.14844e-24, cumulative = 5.36432e-24
DICPCG:  Solving for p, Initial residual = 0.581297, Final residual = 8.7353e-07, No Iterations 98
time step continuity errors : sum local = 3.16581e-20, global = 8.21368e-24, cumulative = 1.3578e-23
ExecutionTime = 0.19 s  ClockTime = 0 s

Time = 0.003

Courant Number mean: 2.17696e-06 max: 0.000170794
smoothSolver:  Solving for Ux, Initial residual = 0.000255161, Final residual = 5.24193e-07, No Iterations 9
smoothSolver:  Solving for Uy, Initial residual = 0.115495, Final residual = 9.36848e-07, No Iterations 16
DICPCG:  Solving for p, Initial residual = 0.524295, Final residual = 0.0224333, No Iterations 8
time step continuity errors : sum local = 5.76594e-16, global = -6.2103e-24, cumulative = 7.3677e-24
DICPCG:  Solving for p, Initial residual = 0.535502, Final residual = 9.8776e-07, No Iterations 95
time step continuity errors : sum local = 2.00258e-20, global = -8.72229e-25, cumulative = 6.49547e-24
ExecutionTime = 0.21 s  ClockTime = 0 s

Time = 0.004

Courant Number mean: 2.18648e-06 max: 0.000170843
smoothSolver:  Solving for Ux, Initial residual = 2.12011e-05, Final residual = 5.67866e-07, No Iterations 5
smoothSolver:  Solving for Uy, Initial residual = 0.170384, Final residual = 9.88725e-07, No Iterations 16
DICPCG:  Solving for p, Initial residual = 0.49593, Final residual = 0.0242718, No Iterations 10
time step continuity errors : sum local = 4.46927e-16, global = -4.02731e-25, cumulative = 6.09274e-24
DICPCG:  Solving for p, Initial residual = 0.508321, Final residual = 8.26154e-07, No Iterations 97
time step continuity errors : sum local = 1.46153e-20, global = 2.23911e-24, cumulative = 8.33185e-24
ExecutionTime = 0.24 s  ClockTime = 0 s

Time = 0.005

Courant Number mean: 2.18735e-06 max: 0.000170846
smoothSolver:  Solving for Ux, Initial residual = 2.29354e-06, Final residual = 9.71183e-07, No Iterations 1
smoothSolver:  Solving for Uy, Initial residual = 0.147855, Final residual = 7.97417e-07, No Iterations 16
DICPCG:  Solving for p, Initial residual = 0.436291, Final residual = 0.0190745, No Iterations 32
time step continuity errors : sum local = 3.80162e-16, global = 2.48118e-24, cumulative = 1.0813e-23
DICPCG:  Solving for p, Initial residual = 0.449316, Final residual = 8.71838e-07, No Iterations 98
time step continuity errors : sum local = 1.77946e-20, global = 1.76163e-25, cumulative = 1.09892e-23
ExecutionTime = 0.26 s  ClockTime = 0 s

Time = 0.006

Courant Number mean: 2.18742e-06 max: 0.000170846
smoothSolver:  Solving for Ux, Initial residual = 8.01631e-07, Final residual = 8.01631e-07, No Iterations 0
smoothSolver:  Solving for Uy, Initial residual = 0.152127, Final residual = 5.28713e-07, No Iterations 16
DICPCG:  Solving for p, Initial residual = 0.516461, Final residual = 0.025364, No Iterations 20
time step continuity errors : sum local = 2.93052e-16, global = 3.66511e-24, cumulative = 1.46543e-23
DICPCG:  Solving for p, Initial residual = 0.472169, Final residual = 9.71468e-07, No Iterations 95
time step continuity errors : sum local = 7.68157e-21, global = -7.45773e-24, cumulative = 7.19657e-24
ExecutionTime = 0.28 s  ClockTime = 0 s

Time = 0.007

Courant Number mean: 2.18743e-06 max: 0.000170846
smoothSolver:  Solving for Ux, Initial residual = 5.41262e-07, Final residual = 5.41262e-07, No Iterations 0
smoothSolver:  Solving for Uy, Initial residual = 0.179155, Final residual = 6.27195e-07, No Iterations 16
DICPCG:  Solving for p, Initial residual = 0.548076, Final residual = 0.0266757, No Iterations 11
time step continuity errors : sum local = 1.42264e-16, global = 5.99357e-24, cumulative = 1.31901e-23
DICPCG:  Solving for p, Initial residual = 0.538182, Final residual = 8.86609e-07, No Iterations 97
time step continuity errors : sum local = 3.65783e-21, global = 6.31587e-24, cumulative = 1.9506e-23
ExecutionTime = 0.29 s  ClockTime = 0 s

Time = 0.008

Courant Number mean: 2.18744e-06 max: 0.000170846
smoothSolver:  Solving for Ux, Initial residual = 3.68999e-07, Final residual = 3.68999e-07, No Iterations 0
smoothSolver:  Solving for Uy, Initial residual = 0.163613, Final residual = 6.85847e-07, No Iterations 16
DICPCG:  Solving for p, Initial residual = 0.571309, Final residual = 0.0272701, No Iterations 8
time step continuity errors : sum local = 7.9165e-17, global = -4.0084e-24, cumulative = 1.54976e-23
DICPCG:  Solving for p, Initial residual = 0.56183, Final residual = 6.98945e-07, No Iterations 98
time step continuity errors : sum local = 1.71616e-21, global = -2.49428e-24, cumulative = 1.30033e-23
ExecutionTime = 0.31 s  ClockTime = 0 s

Time = 0.009

Courant Number mean: 2.18745e-06 max: 0.000170846
smoothSolver:  Solving for Ux, Initial residual = 2.5313e-07, Final residual = 2.5313e-07, No Iterations 0
smoothSolver:  Solving for Uy, Initial residual = 0.15737, Final residual = 7.34567e-07, No Iterations 16
DICPCG:  Solving for p, Initial residual = 0.601749, Final residual = 0.0269387, No Iterations 8
time step continuity errors : sum local = 4.52549e-17, global = -7.1933e-25, cumulative = 1.2284e-23
DICPCG:  Solving for p, Initial residual = 0.590806, Final residual = 7.29124e-07, No Iterations 98
time step continuity errors : sum local = 1.09999e-21, global = 6.66414e-27, cumulative = 1.22907e-23
ExecutionTime = 0.33 s  ClockTime = 1 s

Time = 0.01

Courant Number mean: 2.18745e-06 max: 0.000170846
smoothSolver:  Solving for Ux, Initial residual = 1.74325e-07, Final residual = 1.74325e-07, No Iterations 0
smoothSolver:  Solving for Uy, Initial residual = 0.15047, Final residual = 7.54996e-07, No Iterations 16
DICPCG:  Solving for p, Initial residual = 0.617236, Final residual = 0.0287388, No Iterations 8
time step continuity errors : sum local = 2.89935e-17, global = -5.88431e-24, cumulative = 6.40635e-24
DICPCG:  Solving for p, Initial residual = 0.609787, Final residual = 7.38833e-07, No Iterations 98
time step continuity errors : sum local = 7.42636e-22, global = 3.57093e-24, cumulative = 9.97729e-24
ExecutionTime = 0.35 s  ClockTime = 1 s

Time = 0.011

Courant Number mean: 2.18745e-06 max: 0.000170846
smoothSolver:  Solving for Ux, Initial residual = 1.20356e-07, Final residual = 1.20356e-07, No Iterations 0
smoothSolver:  Solving for Uy, Initial residual = 0.145487, Final residual = 7.65629e-07, No Iterations 16
DICPCG:  Solving for p, Initial residual = 0.632373, Final residual = 0.0302478, No Iterations 8
time step continuity errors : sum local = 1.87327e-17, global = 5.65947e-25, cumulative = 1.05432e-23
DICPCG:  Solving for p, Initial residual = 0.625609, Final residual = 7.50162e-07, No Iterations 98
time step continuity errors : sum local = 5.34641e-22, global = 9.34343e-25, cumulative = 1.14776e-23
ExecutionTime = 0.36 s  ClockTime = 1 s

Time = 0.012

Courant Number mean: 2.18745e-06 max: 0.000170846
smoothSolver:  Solving for Ux, Initial residual = 8.32308e-08, Final residual = 8.32308e-08, No Iterations 0
smoothSolver:  Solving for Uy, Initial residual = 0.141401, Final residual = 7.64849e-07, No Iterations 16
DICPCG:  Solving for p, Initial residual = 0.641376, Final residual = 0.0317667, No Iterations 8
time step continuity errors : sum local = 1.22789e-17, global = -6.88074e-25, cumulative = 1.07895e-23
DICPCG:  Solving for p, Initial residual = 0.634938, Final residual = 7.54627e-07, No Iterations 98
time step continuity errors : sum local = 3.93874e-22, global = -3.03282e-24, cumulative = 7.75669e-24
ExecutionTime = 0.38 s  ClockTime = 1 s

Time = 0.013

Courant Number mean: 2.18745e-06 max: 0.000170846
smoothSolver:  Solving for Ux, Initial residual = 5.76201e-08, Final residual = 5.76201e-08, No Iterations 0
smoothSolver:  Solving for Uy, Initial residual = 0.138028, Final residual = 7.58923e-07, No Iterations 16
DICPCG:  Solving for p, Initial residual = 0.648556, Final residual = 0.0313433, No Iterations 9
time step continuity errors : sum local = 7.64565e-18, global = 2.48186e-24, cumulative = 1.02385e-23
DICPCG:  Solving for p, Initial residual = 0.642699, Final residual = 7.50316e-07, No Iterations 98
time step continuity errors : sum local = 3.07918e-22, global = 1.33739e-24, cumulative = 1.15759e-23
ExecutionTime = 0.4 s  ClockTime = 1 s

Time = 0.014

Courant Number mean: 2.18745e-06 max: 0.000170846
smoothSolver:  Solving for Ux, Initial residual = 3.99192e-08, Final residual = 3.99192e-08, No Iterations 0
smoothSolver:  Solving for Uy, Initial residual = 0.134037, Final residual = 7.4871e-07, No Iterations 16
DICPCG:  Solving for p, Initial residual = 0.6535, Final residual = 0.0321614, No Iterations 12
time step continuity errors : sum local = 5.00233e-18, global = 6.17904e-26, cumulative = 1.16377e-23
DICPCG:  Solving for p, Initial residual = 0.649998, Final residual = 7.43009e-07, No Iterations 98
time step continuity errors : sum local = 2.59735e-22, global = 7.88049e-25, cumulative = 1.24258e-23
ExecutionTime = 0.42 s  ClockTime = 1 s

Time = 0.015

Courant Number mean: 2.18746e-06 max: 0.000170846
smoothSolver:  Solving for Ux, Initial residual = 2.76697e-08, Final residual = 2.76697e-08, No Iterations 0
smoothSolver:  Solving for Uy, Initial residual = 0.130108, Final residual = 7.34438e-07, No Iterations 16
DICPCG:  Solving for p, Initial residual = 0.657942, Final residual = 0.0319192, No Iterations 14
time step continuity errors : sum local = 3.17708e-18, global = -9.9751e-25, cumulative = 1.14283e-23
DICPCG:  Solving for p, Initial residual = 0.653464, Final residual = 7.53373e-07, No Iterations 98
time step continuity errors : sum local = 2.29854e-22, global = -6.53359e-25, cumulative = 1.07749e-23
ExecutionTime = 0.44 s  ClockTime = 1 s

Time = 0.016

Courant Number mean: 2.18746e-06 max: 0.000170846
smoothSolver:  Solving for Ux, Initial residual = 1.91857e-08, Final residual = 1.91857e-08, No Iterations 0
smoothSolver:  Solving for Uy, Initial residual = 0.128056, Final residual = 7.18146e-07, No Iterations 16
DICPCG:  Solving for p, Initial residual = 0.663441, Final residual = 0.0315173, No Iterations 17
time step continuity errors : sum local = 2.01724e-18, global = -5.41268e-24, cumulative = 5.36223e-24
DICPCG:  Solving for p, Initial residual = 0.658006, Final residual = 7.65183e-07, No Iterations 98
time step continuity errors : sum local = 2.07185e-22, global = 4.14593e-24, cumulative = 9.50816e-24
ExecutionTime = 0.45 s  ClockTime = 1 s

Time = 0.017

Courant Number mean: 2.18746e-06 max: 0.000170846
smoothSolver:  Solving for Ux, Initial residual = 1.33062e-08, Final residual = 1.33062e-08, No Iterations 0
smoothSolver:  Solving for Uy, Initial residual = 0.125966, Final residual = 7.03306e-07, No Iterations 16
DICPCG:  Solving for p, Initial residual = 0.664706, Final residual = 0.0327263, No Iterations 18
time step continuity errors : sum local = 1.35639e-18, global = 1.12425e-23, cumulative = 2.07507e-23
DICPCG:  Solving for p, Initial residual = 0.658164, Final residual = 7.65395e-07, No Iterations 98
time step continuity errors : sum local = 2.02573e-22, global = 2.90211e-24, cumulative = 2.36528e-23
ExecutionTime = 0.47 s  ClockTime = 1 s

Time = 0.018

Courant Number mean: 2.18746e-06 max: 0.000170846
smoothSolver:  Solving for Ux, Initial residual = 9.22993e-09, Final residual = 9.22993e-09, No Iterations 0
smoothSolver:  Solving for Uy, Initial residual = 0.124186, Final residual = 6.91617e-07, No Iterations 16
DICPCG:  Solving for p, Initial residual = 0.665128, Final residual = 0.0307353, No Iterations 25
time step continuity errors : sum local = 8.27973e-19, global = 6.35682e-24, cumulative = 3.00096e-23
DICPCG:  Solving for p, Initial residual = 0.65886, Final residual = 8.04142e-07, No Iterations 98
time step continuity errors : sum local = 1.7917e-22, global = -5.91854e-24, cumulative = 2.40911e-23
ExecutionTime = 0.49 s  ClockTime = 1 s

Time = 0.019

Courant Number mean: 2.18746e-06 max: 0.000170846
smoothSolver:  Solving for Ux, Initial residual = 6.40314e-09, Final residual = 6.40314e-09, No Iterations 0
smoothSolver:  Solving for Uy, Initial residual = 0.123989, Final residual = 6.78671e-07, No Iterations 16
DICPCG:  Solving for p, Initial residual = 0.667614, Final residual = 0.0328219, No Iterations 25
time step continuity errors : sum local = 5.76101e-19, global = 3.71288e-24, cumulative = 2.78039e-23
DICPCG:  Solving for p, Initial residual = 0.660157, Final residual = 8.03042e-07, No Iterations 98
time step continuity errors : sum local = 1.76208e-22, global = -5.89979e-25, cumulative = 2.7214e-23
ExecutionTime = 0.51 s  ClockTime = 1 s

Time = 0.02

Courant Number mean: 2.18746e-06 max: 0.000170846
smoothSolver:  Solving for Ux, Initial residual = 4.44245e-09, Final residual = 4.44245e-09, No Iterations 0
smoothSolver:  Solving for Uy, Initial residual = 0.122504, Final residual = 6.65543e-07, No Iterations 16
DICPCG:  Solving for p, Initial residual = 0.66801, Final residual = 0.0298516, No Iterations 26
time step continuity errors : sum local = 3.42774e-19, global = -4.02902e-24, cumulative = 2.31849e-23
DICPCG:  Solving for p, Initial residual = 0.660293, Final residual = 8.07094e-07, No Iterations 98
time step continuity errors : sum local = 1.62776e-22, global = -5.09477e-24, cumulative = 1.80902e-23
ExecutionTime = 0.53 s  ClockTime = 1 s

Time = 0.021

Courant Number mean: 2.18746e-06 max: 0.000170846
smoothSolver:  Solving for Ux, Initial residual = 3.0823e-09, Final residual = 3.0823e-09, No Iterations 0
smoothSolver:  Solving for Uy, Initial residual = 0.120951, Final residual = 6.50864e-07, No Iterations 16
DICPCG:  Solving for p, Initial residual = 0.668304, Final residual = 0.0303272, No Iterations 26
time step continuity errors : sum local = 2.28221e-19, global = 4.626e-25, cumulative = 1.85528e-23
DICPCG:  Solving for p, Initial residual = 0.65968, Final residual = 8.00312e-07, No Iterations 98
time step continuity errors : sum local = 1.7222e-22, global = 1.13518e-23, cumulative = 2.99046e-23
ExecutionTime = 0.55 s  ClockTime = 1 s

Time = 0.022

Courant Number mean: 2.18746e-06 max: 0.000170846
smoothSolver:  Solving for Ux, Initial residual = 2.13868e-09, Final residual = 2.13868e-09, No Iterations 0
smoothSolver:  Solving for Uy, Initial residual = 0.119644, Final residual = 6.38925e-07, No Iterations 16
DICPCG:  Solving for p, Initial residual = 0.667316, Final residual = 0.0307748, No Iterations 26
time step continuity errors : sum local = 1.52462e-19, global = 2.38688e-24, cumulative = 3.22915e-23
DICPCG:  Solving for p, Initial residual = 0.658339, Final residual = 7.98794e-07, No Iterations 98
time step continuity errors : sum local = 1.64434e-22, global = -8.00066e-24, cumulative = 2.42908e-23
ExecutionTime = 0.57 s  ClockTime = 1 s

Time = 0.023

Courant Number mean: 2.18746e-06 max: 0.000170846
smoothSolver:  Solving for Ux, Initial residual = 1.48398e-09, Final residual = 1.48398e-09, No Iterations 0
smoothSolver:  Solving for Uy, Initial residual = 0.118502, Final residual = 6.2747e-07, No Iterations 16
DICPCG:  Solving for p, Initial residual = 0.666354, Final residual = 0.0311309, No Iterations 26
time step continuity errors : sum local = 1.01839e-19, global = 2.52063e-24, cumulative = 2.68114e-23
DICPCG:  Solving for p, Initial residual = 0.656564, Final residual = 7.94834e-07, No Iterations 98
time step continuity errors : sum local = 1.75629e-22, global = -2.98158e-24, cumulative = 2.38298e-23
ExecutionTime = 0.59 s  ClockTime = 1 s

Time = 0.024

Courant Number mean: 2.18746e-06 max: 0.000170846
smoothSolver:  Solving for Ux, Initial residual = 1.02971e-09, Final residual = 1.02971e-09, No Iterations 0
smoothSolver:  Solving for Uy, Initial residual = 0.117405, Final residual = 6.16585e-07, No Iterations 16
DICPCG:  Solving for p, Initial residual = 0.663882, Final residual = 0.0313707, No Iterations 26
time step continuity errors : sum local = 6.80362e-20, global = 4.72345e-24, cumulative = 2.85533e-23
DICPCG:  Solving for p, Initial residual = 0.65338, Final residual = 7.685e-07, No Iterations 98
time step continuity errors : sum local = 1.62415e-22, global = -1.04683e-23, cumulative = 1.8085e-23
ExecutionTime = 0.61 s  ClockTime = 1 s

Time = 0.025

Courant Number mean: 2.18746e-06 max: 0.000170846
smoothSolver:  Solving for Ux, Initial residual = 7.14514e-10, Final residual = 7.14514e-10, No Iterations 0
smoothSolver:  Solving for Uy, Initial residual = 0.116391, Final residual = 6.06392e-07, No Iterations 16
DICPCG:  Solving for p, Initial residual = 0.660267, Final residual = 0.0314888, No Iterations 26
time step continuity errors : sum local = 4.54654e-20, global = 3.96879e-24, cumulative = 2.20538e-23
DICPCG:  Solving for p, Initial residual = 0.648581, Final residual = 7.76858e-07, No Iterations 98
time step continuity errors : sum local = 1.59807e-22, global = 1.69578e-24, cumulative = 2.37495e-23
ExecutionTime = 0.62 s  ClockTime = 1 s

Time = 0.026

Courant Number mean: 2.18746e-06 max: 0.000170846
smoothSolver:  Solving for Ux, Initial residual = 4.95804e-10, Final residual = 4.95804e-10, No Iterations 0
smoothSolver:  Solving for Uy, Initial residual = 0.115412, Final residual = 5.96625e-07, No Iterations 16
DICPCG:  Solving for p, Initial residual = 0.654232, Final residual = 0.0314368, No Iterations 26
time step continuity errors : sum local = 3.03693e-20, global = -2.39558e-24, cumulative = 2.1354e-23
DICPCG:  Solving for p, Initial residual = 0.641106, Final residual = 7.60272e-07, No Iterations 98
time step continuity errors : sum local = 1.65445e-22, global = 1.57565e-24, cumulative = 2.29296e-23
ExecutionTime = 0.64 s  ClockTime = 1 s

Time = 0.027

Courant Number mean: 2.18746e-06 max: 0.000170846
smoothSolver:  Solving for Ux, Initial residual = 3.44042e-10, Final residual = 3.44042e-10, No Iterations 0
smoothSolver:  Solving for Uy, Initial residual = 0.114453, Final residual = 5.87107e-07, No Iterations 16
DICPCG:  Solving for p, Initial residual = 0.645083, Final residual = 0.0311267, No Iterations 26
time step continuity errors : sum local = 2.02668e-20, global = -3.28057e-24, cumulative = 1.9649e-23
DICPCG:  Solving for p, Initial residual = 0.630044, Final residual = 7.38002e-07, No Iterations 98
time step continuity errors : sum local = 1.72731e-22, global = 9.64678e-25, cumulative = 2.06137e-23
ExecutionTime = 0.66 s  ClockTime = 1 s

Time = 0.028

Courant Number mean: 2.18746e-06 max: 0.000170846
smoothSolver:  Solving for Ux, Initial residual = 2.38734e-10, Final residual = 2.38734e-10, No Iterations 0
smoothSolver:  Solving for Uy, Initial residual = 0.113547, Final residual = 5.78354e-07, No Iterations 16
DICPCG:  Solving for p, Initial residual = 0.631353, Final residual = 0.0305497, No Iterations 26
time step continuity errors : sum local = 1.35644e-20, global = 9.92018e-24, cumulative = 3.05339e-23
DICPCG:  Solving for p, Initial residual = 0.613762, Final residual = 9.94355e-07, No Iterations 97
time step continuity errors : sum local = 1.58286e-22, global = 3.57066e-25, cumulative = 3.0891e-23
ExecutionTime = 0.68 s  ClockTime = 1 s

Time = 0.029

Courant Number mean: 2.18746e-06 max: 0.000170846
smoothSolver:  Solving for Ux, Initial residual = 1.65661e-10, Final residual = 1.65661e-10, No Iterations 0
smoothSolver:  Solving for Uy, Initial residual = 0.112577, Final residual = 5.69301e-07, No Iterations 16
DICPCG:  Solving for p, Initial residual = 0.611495, Final residual = 0.0296077, No Iterations 26
time step continuity errors : sum local = 9.05701e-21, global = 1.43999e-24, cumulative = 3.23309e-23
DICPCG:  Solving for p, Initial residual = 0.590663, Final residual = 9.43822e-07, No Iterations 97
time step continuity errors : sum local = 1.61206e-22, global = 1.61389e-24, cumulative = 3.39448e-23
ExecutionTime = 0.7 s  ClockTime = 1 s

Time = 0.03

Courant Number mean: 2.18746e-06 max: 0.000170846
smoothSolver:  Solving for Ux, Initial residual = 1.14954e-10, Final residual = 1.14954e-10, No Iterations 0
smoothSolver:  Solving for Uy, Initial residual = 0.111598, Final residual = 5.60777e-07, No Iterations 16
DICPCG:  Solving for p, Initial residual = 0.58309, Final residual = 0.0282158, No Iterations 26
time step continuity errors : sum local = 6.09589e-21, global = -3.74786e-24, cumulative = 3.0197e-23
DICPCG:  Solving for p, Initial residual = 0.558366, Final residual = 8.80712e-07, No Iterations 97
time step continuity errors : sum local = 1.52164e-22, global = 1.11363e-23, cumulative = 4.13333e-23
ExecutionTime = 0.72 s  ClockTime = 1 s

Time = 0.031

Courant Number mean: 2.18746e-06 max: 0.000170846
smoothSolver:  Solving for Ux, Initial residual = 7.97684e-11, Final residual = 7.97684e-11, No Iterations 0
smoothSolver:  Solving for Uy, Initial residual = 0.110478, Final residual = 5.5146e-07, No Iterations 16
DICPCG:  Solving for p, Initial residual = 0.543744, Final residual = 0.0263107, No Iterations 26
time step continuity errors : sum local = 4.09919e-21, global = 4.77544e-25, cumulative = 4.18109e-23
DICPCG:  Solving for p, Initial residual = 0.514633, Final residual = 7.35387e-07, No Iterations 97
time step continuity errors : sum local = 1.55592e-22, global = -3.32823e-24, cumulative = 3.84826e-23
ExecutionTime = 0.74 s  ClockTime = 1 s

Time = 0.032

Courant Number mean: 2.18746e-06 max: 0.000170846
smoothSolver:  Solving for Ux, Initial residual = 5.53525e-11, Final residual = 5.53525e-11, No Iterations 0
smoothSolver:  Solving for Uy, Initial residual = 0.109105, Final residual = 5.40964e-07, No Iterations 16
DICPCG:  Solving for p, Initial residual = 0.492716, Final residual = 0.0236973, No Iterations 26
time step continuity errors : sum local = 2.74565e-21, global = 6.28142e-25, cumulative = 3.91108e-23
DICPCG:  Solving for p, Initial residual = 0.459538, Final residual = 7.03639e-07, No Iterations 97
time step continuity errors : sum local = 1.64336e-22, global = 2.93105e-24, cumulative = 4.20418e-23
ExecutionTime = 0.76 s  ClockTime = 1 s

Time = 0.033

Courant Number mean: 2.18746e-06 max: 0.000170846
smoothSolver:  Solving for Ux, Initial residual = 3.841e-11, Final residual = 3.841e-11, No Iterations 0
smoothSolver:  Solving for Uy, Initial residual = 0.10741, Final residual = 5.29819e-07, No Iterations 16
DICPCG:  Solving for p, Initial residual = 0.431547, Final residual = 0.0209722, No Iterations 26
time step continuity errors : sum local = 1.90907e-21, global = 2.71557e-24, cumulative = 4.47574e-23
DICPCG:  Solving for p, Initial residual = 0.395774, Final residual = 9.0461e-07, No Iterations 96
time step continuity errors : sum local = 1.58533e-22, global = -9.4256e-25, cumulative = 4.38148e-23
ExecutionTime = 0.78 s  ClockTime = 1 s

Time = 0.034

Courant Number mean: 2.18746e-06 max: 0.000170846
smoothSolver:  Solving for Ux, Initial residual = 2.66534e-11, Final residual = 2.66534e-11, No Iterations 0
smoothSolver:  Solving for Uy, Initial residual = 0.105269, Final residual = 5.1641e-07, No Iterations 16
DICPCG:  Solving for p, Initial residual = 0.36243, Final residual = 0.017599, No Iterations 26
time step continuity errors : sum local = 1.32528e-21, global = 4.02938e-24, cumulative = 4.78442e-23
DICPCG:  Solving for p, Initial residual = 0.326982, Final residual = 7.1627e-07, No Iterations 96
time step continuity errors : sum local = 1.60851e-22, global = -4.25625e-25, cumulative = 4.74186e-23
ExecutionTime = 0.8 s  ClockTime = 1 s

Time = 0.035

Courant Number mean: 2.18746e-06 max: 0.000170846
smoothSolver:  Solving for Ux, Initial residual = 1.84951e-11, Final residual = 1.84951e-11, No Iterations 0
smoothSolver:  Solving for Uy, Initial residual = 0.102234, Final residual = 9.84071e-07, No Iterations 15
DICPCG:  Solving for p, Initial residual = 0.292589, Final residual = 0.0141191, No Iterations 26
time step continuity errors : sum local = 9.23934e-22, global = -4.80882e-24, cumulative = 4.26098e-23
DICPCG:  Solving for p, Initial residual = 0.25866, Final residual = 9.1189e-07, No Iterations 95
time step continuity errors : sum local = 1.75535e-22, global = 8.40465e-25, cumulative = 4.34502e-23
ExecutionTime = 0.82 s  ClockTime = 1 s

Time = 0.036

Courant Number mean: 2.18746e-06 max: 0.000170846
smoothSolver:  Solving for Ux, Initial residual = 1.28341e-11, Final residual = 1.28341e-11, No Iterations 0
smoothSolver:  Solving for Uy, Initial residual = 0.0981047, Final residual = 9.37602e-07, No Iterations 15
DICPCG:  Solving for p, Initial residual = 0.226645, Final residual = 0.0112071, No Iterations 26
time step continuity errors : sum local = 7.01814e-22, global = 7.29734e-24, cumulative = 5.07476e-23
DICPCG:  Solving for p, Initial residual = 0.197629, Final residual = 9.4564e-07, No Iterations 94
time step continuity errors : sum local = 1.67961e-22, global = -1.01099e-24, cumulative = 4.97366e-23
ExecutionTime = 0.84 s  ClockTime = 1 s

Time = 0.037

Courant Number mean: 2.18746e-06 max: 0.000170846
smoothSolver:  Solving for Ux, Initial residual = 8.90581e-12, Final residual = 8.90581e-12, No Iterations 0
smoothSolver:  Solving for Uy, Initial residual = 0.0934526, Final residual = 8.98112e-07, No Iterations 15
DICPCG:  Solving for p, Initial residual = 0.172078, Final residual = 0.00850496, No Iterations 26
time step continuity errors : sum local = 5.35761e-22, global = 1.73145e-24, cumulative = 5.1468e-23
DICPCG:  Solving for p, Initial residual = 0.148033, Final residual = 9.11362e-07, No Iterations 90
time step continuity errors : sum local = 1.65486e-22, global = 2.49261e-24, cumulative = 5.39606e-23
ExecutionTime = 0.86 s  ClockTime = 1 s

Time = 0.038

Courant Number mean: 2.18746e-06 max: 0.000170846
smoothSolver:  Solving for Ux, Initial residual = 6.17988e-12, Final residual = 6.17988e-12, No Iterations 0
smoothSolver:  Solving for Uy, Initial residual = 0.0861217, Final residual = 8.24698e-07, No Iterations 15
DICPCG:  Solving for p, Initial residual = 0.12705, Final residual = 0.00621272, No Iterations 26
time step continuity errors : sum local = 4.23515e-22, global = 3.78998e-24, cumulative = 5.77506e-23
DICPCG:  Solving for p, Initial residual = 0.107992, Final residual = 8.58913e-07, No Iterations 93
time step continuity errors : sum local = 1.61622e-22, global = -1.5926e-24, cumulative = 5.6158e-23
ExecutionTime = 0.88 s  ClockTime = 1 s

Time = 0.039

Courant Number mean: 2.18746e-06 max: 0.000170846
smoothSolver:  Solving for Ux, Initial residual = 4.28832e-12, Final residual = 4.28832e-12, No Iterations 0
smoothSolver:  Solving for Uy, Initial residual = 0.0784638, Final residual = 7.59256e-07, No Iterations 15
DICPCG:  Solving for p, Initial residual = 0.0948988, Final residual = 0.00438412, No Iterations 26
time step continuity errors : sum local = 3.31045e-22, global = -2.75943e-24, cumulative = 5.33986e-23
DICPCG:  Solving for p, Initial residual = 0.0795339, Final residual = 9.49846e-07, No Iterations 90
time step continuity errors : sum local = 1.59487e-22, global = 4.48315e-24, cumulative = 5.78817e-23
ExecutionTime = 0.89 s  ClockTime = 1 s

Time = 0.04

Courant Number mean: 2.18746e-06 max: 0.000170846
smoothSolver:  Solving for Ux, Initial residual = 2.97571e-12, Final residual = 2.97571e-12, No Iterations 0
smoothSolver:  Solving for Uy, Initial residual = 0.0688311, Final residual = 6.55329e-07, No Iterations 15
DICPCG:  Solving for p, Initial residual = 0.0709387, Final residual = 0.00316192, No Iterations 26
time step continuity errors : sum local = 2.86062e-22, global = 7.4328e-24, cumulative = 6.53145e-23
DICPCG:  Solving for p, Initial residual = 0.0593586, Final residual = 8.78289e-07, No Iterations 89
time step continuity errors : sum local = 1.79621e-22, global = -1.85629e-24, cumulative = 6.34582e-23
ExecutionTime = 0.91 s  ClockTime = 1 s

Time = 0.041

Courant Number mean: 2.18746e-06 max: 0.000170846
smoothSolver:  Solving for Ux, Initial residual = 2.06493e-12, Final residual = 2.06493e-12, No Iterations 0
smoothSolver:  Solving for Uy, Initial residual = 0.059399, Final residual = 5.90233e-07, No Iterations 15
DICPCG:  Solving for p, Initial residual = 0.0527052, Final residual = 0.00242993, No Iterations 26
time step continuity errors : sum local = 2.48899e-22, global = -2.68586e-24, cumulative = 6.07724e-23
DICPCG:  Solving for p, Initial residual = 0.0438413, Final residual = 9.19031e-07, No Iterations 87
time step continuity errors : sum local = 1.73603e-22, global = 1.44286e-24, cumulative = 6.22152e-23
ExecutionTime = 0.93 s  ClockTime = 1 s

Time = 0.042

Courant Number mean: 2.18746e-06 max: 0.000170846
smoothSolver:  Solving for Ux, Initial residual = 1.43285e-12, Final residual = 1.43285e-12, No Iterations 0
smoothSolver:  Solving for Uy, Initial residual = 0.0500556, Final residual = 5.12835e-07, No Iterations 15
DICPCG:  Solving for p, Initial residual = 0.0427138, Final residual = 0.00173093, No Iterations 26
time step continuity errors : sum local = 2.32793e-22, global = 7.96519e-25, cumulative = 6.30118e-23
DICPCG:  Solving for p, Initial residual = 0.0352317, Final residual = 7.67632e-07, No Iterations 87
time step continuity errors : sum local = 1.58812e-22, global = 3.79599e-24, cumulative = 6.68078e-23
ExecutionTime = 0.95 s  ClockTime = 1 s

Time = 0.043

Courant Number mean: 2.18746e-06 max: 0.000170846
smoothSolver:  Solving for Ux, Initial residual = 9.94269e-13, Final residual = 9.94269e-13, No Iterations 0
smoothSolver:  Solving for Uy, Initial residual = 0.0412604, Final residual = 8.79257e-07, No Iterations 14
DICPCG:  Solving for p, Initial residual = 0.0353632, Final residual = 0.00155437, No Iterations 24
time step continuity errors : sum local = 2.13e-22, global = -1.17577e-25, cumulative = 6.66902e-23
DICPCG:  Solving for p, Initial residual = 0.028655, Final residual = 6.09261e-07, No Iterations 87
time step continuity errors : sum local = 1.69545e-22, global = -5.608e-24, cumulative = 6.10822e-23
ExecutionTime = 0.97 s  ClockTime = 1 s

Time = 0.044

Courant Number mean: 2.18746e-06 max: 0.000170846
smoothSolver:  Solving for Ux, Initial residual = 6.89988e-13, Final residual = 6.89988e-13, No Iterations 0
smoothSolver:  Solving for Uy, Initial residual = 0.0351212, Final residual = 7.47087e-07, No Iterations 14
DICPCG:  Solving for p, Initial residual = 0.029985, Final residual = 0.00141745, No Iterations 10
time step continuity errors : sum local = 2.27833e-22, global = -2.57391e-25, cumulative = 6.08248e-23
DICPCG:  Solving for p, Initial residual = 0.0244107, Final residual = 8.40513e-07, No Iterations 86
time step continuity errors : sum local = 1.63583e-22, global = 4.1428e-25, cumulative = 6.12391e-23
ExecutionTime = 0.98 s  ClockTime = 1 s

Time = 0.045

Courant Number mean: 2.18746e-06 max: 0.000170846
smoothSolver:  Solving for Ux, Initial residual = 4.78752e-13, Final residual = 4.78752e-13, No Iterations 0
smoothSolver:  Solving for Uy, Initial residual = 0.0295875, Final residual = 6.731e-07, No Iterations 14
DICPCG:  Solving for p, Initial residual = 0.0270666, Final residual = 0.00122566, No Iterations 30
time step continuity errors : sum local = 2.16732e-22, global = 3.03074e-24, cumulative = 6.42698e-23
DICPCG:  Solving for p, Initial residual = 0.0219246, Final residual = 8.90973e-07, No Iterations 81
time step continuity errors : sum local = 1.59974e-22, global = -5.76141e-24, cumulative = 5.85084e-23
ExecutionTime = 1.01 s  ClockTime = 1 s

Time = 0.046

Courant Number mean: 2.18746e-06 max: 0.000170846
smoothSolver:  Solving for Ux, Initial residual = 3.32235e-13, Final residual = 3.32235e-13, No Iterations 0
smoothSolver:  Solving for Uy, Initial residual = 0.0256866, Final residual = 6.6632e-07, No Iterations 14
DICPCG:  Solving for p, Initial residual = 0.0266164, Final residual = 0.00118043, No Iterations 18
time step continuity errors : sum local = 2.15691e-22, global = -2.48547e-24, cumulative = 5.60229e-23
DICPCG:  Solving for p, Initial residual = 0.0221494, Final residual = 7.54581e-07, No Iterations 86
time step continuity errors : sum local = 1.65785e-22, global = -5.70148e-24, cumulative = 5.03214e-23
ExecutionTime = 1.01 s  ClockTime = 1 s

Time = 0.047

Courant Number mean: 2.18746e-06 max: 0.000170846
smoothSolver:  Solving for Ux, Initial residual = 2.3052e-13, Final residual = 2.3052e-13, No Iterations 0
smoothSolver:  Solving for Uy, Initial residual = 0.0238233, Final residual = 6.62998e-07, No Iterations 14
DICPCG:  Solving for p, Initial residual = 0.0281208, Final residual = 0.00138447, No Iterations 23
time step continuity errors : sum local = 2.30519e-22, global = -3.78773e-24, cumulative = 4.65337e-23
DICPCG:  Solving for p, Initial residual = 0.0233421, Final residual = 6.25419e-07, No Iterations 86
time step continuity errors : sum local = 1.73264e-22, global = -5.39914e-24, cumulative = 4.11346e-23
ExecutionTime = 1.03 s  ClockTime = 1 s

Time = 0.048

Courant Number mean: 2.18746e-06 max: 0.000170846
smoothSolver:  Solving for Ux, Initial residual = 1.5998e-13, Final residual = 1.5998e-13, No Iterations 0
smoothSolver:  Solving for Uy, Initial residual = 0.0239021, Final residual = 7.53194e-07, No Iterations 14
DICPCG:  Solving for p, Initial residual = 0.0297245, Final residual = 0.00148114, No Iterations 4
time step continuity errors : sum local = 2.14898e-22, global = -1.78842e-24, cumulative = 3.93462e-23
DICPCG:  Solving for p, Initial residual = 0.0247937, Final residual = 9.46872e-07, No Iterations 85
time step continuity errors : sum local = 1.65748e-22, global = 1.12459e-23, cumulative = 5.05921e-23
ExecutionTime = 1.05 s  ClockTime = 1 s

Time = 0.049

Courant Number mean: 2.18746e-06 max: 0.000170846
smoothSolver:  Solving for Ux, Initial residual = 1.11028e-13, Final residual = 1.11028e-13, No Iterations 0
smoothSolver:  Solving for Uy, Initial residual = 0.0199206, Final residual = 5.93457e-07, No Iterations 14
DICPCG:  Solving for p, Initial residual = 0.0238809, Final residual = 0.00111526, No Iterations 3
time step continuity errors : sum local = 2.04179e-22, global = 8.30994e-24, cumulative = 5.8902e-23
DICPCG:  Solving for p, Initial residual = 0.0195074, Final residual = 6.95923e-07, No Iterations 85
time step continuity errors : sum local = 1.74685e-22, global = -1.63355e-23, cumulative = 4.25665e-23
ExecutionTime = 1.06 s  ClockTime = 1 s

Time = 0.05

Courant Number mean: 2.18746e-06 max: 0.000170846
smoothSolver:  Solving for Ux, Initial residual = 7.70498e-14, Final residual = 7.70498e-14, No Iterations 0
smoothSolver:  Solving for Uy, Initial residual = 0.0204143, Final residual = 6.29869e-07, No Iterations 14
DICPCG:  Solving for p, Initial residual = 0.0263339, Final residual = 0.00126054, No Iterations 4
time step continuity errors : sum local = 2.11937e-22, global = -6.83579e-24, cumulative = 3.57307e-23
DICPCG:  Solving for p, Initial residual = 0.0223013, Final residual = 8.19632e-07, No Iterations 85
time step continuity errors : sum local = 1.59046e-22, global = -7.3708e-24, cumulative = 2.83599e-23
ExecutionTime = 1.09 s  ClockTime = 1 s

Time = 0.051

Courant Number mean: 2.18746e-06 max: 0.000170846
smoothSolver:  Solving for Ux, Initial residual = 5.34385e-14, Final residual = 5.34385e-14, No Iterations 0
smoothSolver:  Solving for Uy, Initial residual = 0.0198374, Final residual = 6.15535e-07, No Iterations 14
DICPCG:  Solving for p, Initial residual = 0.0250031, Final residual = 0.00112693, No Iterations 5
time step continuity errors : sum local = 1.99635e-22, global = 2.33906e-24, cumulative = 3.0699e-23
DICPCG:  Solving for p, Initial residual = 0.0214928, Final residual = 9.95378e-07, No Iterations 83
time step continuity errors : sum local = 1.65879e-22, global = 7.74304e-24, cumulative = 3.8442e-23
ExecutionTime = 1.12 s  ClockTime = 1 s

Time = 0.052

Courant Number mean: 2.18746e-06 max: 0.000170846
smoothSolver:  Solving for Ux, Initial residual = 3.70691e-14, Final residual = 3.70691e-14, No Iterations 0
smoothSolver:  Solving for Uy, Initial residual = 0.0189403, Final residual = 6.17221e-07, No Iterations 14
DICPCG:  Solving for p, Initial residual = 0.0242174, Final residual = 0.00112523, No Iterations 5
time step continuity errors : sum local = 1.99815e-22, global = 2.80951e-24, cumulative = 4.12515e-23
DICPCG:  Solving for p, Initial residual = 0.0203913, Final residual = 8.34584e-07, No Iterations 85
time step continuity errors : sum local = 1.71116e-22, global = -7.5198e-24, cumulative = 3.37317e-23
ExecutionTime = 1.15 s  ClockTime = 1 s

Time = 0.053

Courant Number mean: 2.18746e-06 max: 0.000170846
smoothSolver:  Solving for Ux, Initial residual = 2.57417e-14, Final residual = 2.57417e-14, No Iterations 0
smoothSolver:  Solving for Uy, Initial residual = 0.0200619, Final residual = 6.45305e-07, No Iterations 14
DICPCG:  Solving for p, Initial residual = 0.0244125, Final residual = 0.00111103, No Iterations 6
time step continuity errors : sum local = 2.09747e-22, global = 1.0736e-24, cumulative = 3.48053e-23
DICPCG:  Solving for p, Initial residual = 0.020263, Final residual = 7.45122e-07, No Iterations 85
time step continuity errors : sum local = 1.82316e-22, global = 2.13496e-24, cumulative = 3.69403e-23
ExecutionTime = 1.16 s  ClockTime = 1 s

Time = 0.054

Courant Number mean: 2.18746e-06 max: 0.000170846
smoothSolver:  Solving for Ux, Initial residual = 1.78914e-14, Final residual = 1.78914e-14, No Iterations 0
smoothSolver:  Solving for Uy, Initial residual = 0.0188992, Final residual = 5.96489e-07, No Iterations 14
DICPCG:  Solving for p, Initial residual = 0.0262585, Final residual = 0.00126072, No Iterations 7
time step continuity errors : sum local = 2.07583e-22, global = 7.38284e-24, cumulative = 4.43231e-23
DICPCG:  Solving for p, Initial residual = 0.022296, Final residual = 9.3456e-07, No Iterations 84
time step continuity errors : sum local = 1.64784e-22, global = -7.8343e-25, cumulative = 4.35397e-23
ExecutionTime = 1.18 s  ClockTime = 1 s

Time = 0.055

Courant Number mean: 2.18746e-06 max: 0.000170846
smoothSolver:  Solving for Ux, Initial residual = 1.24255e-14, Final residual = 1.24255e-14, No Iterations 0
smoothSolver:  Solving for Uy, Initial residual = 0.0194135, Final residual = 6.40859e-07, No Iterations 14
DICPCG:  Solving for p, Initial residual = 0.0246428, Final residual = 0.00114462, No Iterations 4
time step continuity errors : sum local = 2.08531e-22, global = -7.15054e-25, cumulative = 4.28246e-23
DICPCG:  Solving for p, Initial residual = 0.0207234, Final residual = 7.7103e-07, No Iterations 84
time step continuity errors : sum local = 1.72344e-22, global = 5.98293e-25, cumulative = 4.34229e-23
ExecutionTime = 1.19 s  ClockTime = 1 s

Time = 0.056

Courant Number mean: 2.18746e-06 max: 0.000170846
smoothSolver:  Solving for Ux, Initial residual = 8.63172e-15, Final residual = 8.63172e-15, No Iterations 0
smoothSolver:  Solving for Uy, Initial residual = 0.0191001, Final residual = 6.35259e-07, No Iterations 14
DICPCG:  Solving for p, Initial residual = 0.0254902, Final residual = 0.00109634, No Iterations 3
time step continuity errors : sum local = 1.96161e-22, global = -2.55695e-24, cumulative = 4.0866e-23
DICPCG:  Solving for p, Initial residual = 0.0215859, Final residual = 8.14585e-07, No Iterations 84
time step continuity errors : sum local = 1.65195e-22, global = 5.65637e-24, cumulative = 4.65223e-23
ExecutionTime = 1.21 s  ClockTime = 1 s

Time = 0.057

Courant Number mean: 2.18746e-06 max: 0.000170846
smoothSolver:  Solving for Ux, Initial residual = 5.9998e-15, Final residual = 5.9998e-15, No Iterations 0
smoothSolver:  Solving for Uy, Initial residual = 0.0203394, Final residual = 6.56242e-07, No Iterations 14
DICPCG:  Solving for p, Initial residual = 0.0266313, Final residual = 0.00127117, No Iterations 6
time step continuity errors : sum local = 2.15838e-22, global = -3.04023e-24, cumulative = 4.34821e-23
DICPCG:  Solving for p, Initial residual = 0.021919, Final residual = 9.97235e-07, No Iterations 85
time step continuity errors : sum local = 1.62107e-22, global = -4.30468e-24, cumulative = 3.91774e-23
ExecutionTime = 1.23 s  ClockTime = 1 s

Time = 0.058

Courant Number mean: 2.18746e-06 max: 0.000170846
smoothSolver:  Solving for Ux, Initial residual = 4.17077e-15, Final residual = 4.17077e-15, No Iterations 0
smoothSolver:  Solving for Uy, Initial residual = 0.0177442, Final residual = 5.69372e-07, No Iterations 14
DICPCG:  Solving for p, Initial residual = 0.0230078, Final residual = 0.00110966, No Iterations 5
time step continuity errors : sum local = 2.04906e-22, global = 6.6561e-25, cumulative = 3.9843e-23
DICPCG:  Solving for p, Initial residual = 0.0199493, Final residual = 8.02845e-07, No Iterations 85
time step continuity errors : sum local = 1.63412e-22, global = -2.10646e-24, cumulative = 3.77366e-23
ExecutionTime = 1.24 s  ClockTime = 1 s

Time = 0.059

Courant Number mean: 2.18746e-06 max: 0.000170846
smoothSolver:  Solving for Ux, Initial residual = 2.89335e-15, Final residual = 2.89335e-15, No Iterations 0
smoothSolver:  Solving for Uy, Initial residual = 0.0200555, Final residual = 7.2192e-07, No Iterations 14
DICPCG:  Solving for p, Initial residual = 0.0248662, Final residual = 0.00108851, No Iterations 5
time step continuity errors : sum local = 2.12838e-22, global = 1.78798e-24, cumulative = 3.95246e-23
DICPCG:  Solving for p, Initial residual = 0.0208262, Final residual = 9.37199e-07, No Iterations 84
time step continuity errors : sum local = 1.7418e-22, global = 1.50376e-24, cumulative = 4.10283e-23
ExecutionTime = 1.26 s  ClockTime = 1 s

Time = 0.06

Courant Number mean: 2.18746e-06 max: 0.000170846
smoothSolver:  Solving for Ux, Initial residual = 2.01984e-15, Final residual = 2.01984e-15, No Iterations 0
smoothSolver:  Solving for Uy, Initial residual = 0.0220096, Final residual = 7.57449e-07, No Iterations 14
DICPCG:  Solving for p, Initial residual = 0.0283155, Final residual = 0.00122319, No Iterations 4
time step continuity errors : sum local = 1.98721e-22, global = 4.19438e-24, cumulative = 4.52227e-23
DICPCG:  Solving for p, Initial residual = 0.0234081, Final residual = 9.79215e-07, No Iterations 83
time step continuity errors : sum local = 1.73246e-22, global = 1.04499e-25, cumulative = 4.53272e-23
ExecutionTime = 1.26 s  ClockTime = 1 s

Time = 0.061

Courant Number mean: 2.18746e-06 max: 0.000170846
smoothSolver:  Solving for Ux, Initial residual = 1.42218e-15, Final residual = 1.42218e-15, No Iterations 0
smoothSolver:  Solving for Uy, Initial residual = 0.0189633, Final residual = 6.02324e-07, No Iterations 14
DICPCG:  Solving for p, Initial residual = 0.024328, Final residual = 0.00110948, No Iterations 6
time step continuity errors : sum local = 1.98936e-22, global = 1.55024e-24, cumulative = 4.68774e-23
DICPCG:  Solving for p, Initial residual = 0.0207353, Final residual = 8.50456e-07, No Iterations 85
time step continuity errors : sum local = 1.78192e-22, global = -4.90334e-24, cumulative = 4.19741e-23
ExecutionTime = 1.28 s  ClockTime = 1 s

Time = 0.062

Courant Number mean: 2.18746e-06 max: 0.000170846
smoothSolver:  Solving for Ux, Initial residual = 9.91862e-16, Final residual = 9.91862e-16, No Iterations 0
smoothSolver:  Solving for Uy, Initial residual = 0.0181012, Final residual = 5.78404e-07, No Iterations 14
DICPCG:  Solving for p, Initial residual = 0.0227968, Final residual = 0.00106891, No Iterations 5
time step continuity errors : sum local = 2.06135e-22, global = -3.34495e-24, cumulative = 3.86291e-23
DICPCG:  Solving for p, Initial residual = 0.0191461, Final residual = 5.91959e-07, No Iterations 85
time step continuity errors : sum local = 1.79451e-22, global = 3.72776e-24, cumulative = 4.23569e-23
ExecutionTime = 1.29 s  ClockTime = 1 s

Time = 0.063

Courant Number mean: 2.18746e-06 max: 0.000170846
smoothSolver:  Solving for Ux, Initial residual = 6.91777e-16, Final residual = 6.91777e-16, No Iterations 0
smoothSolver:  Solving for Uy, Initial residual = 0.0187307, Final residual = 6.07587e-07, No Iterations 14
DICPCG:  Solving for p, Initial residual = 0.0233509, Final residual = 0.00111362, No Iterations 11
time step continuity errors : sum local = 2.12168e-22, global = 4.67313e-24, cumulative = 4.703e-23
DICPCG:  Solving for p, Initial residual = 0.0200431, Final residual = 7.75043e-07, No Iterations 80
time step continuity errors : sum local = 1.68105e-22, global = -6.57966e-24, cumulative = 4.04504e-23
ExecutionTime = 1.31 s  ClockTime = 2 s

Time = 0.064

Courant Number mean: 2.18746e-06 max: 0.000170846
smoothSolver:  Solving for Ux, Initial residual = 4.82401e-16, Final residual = 4.82401e-16, No Iterations 0
smoothSolver:  Solving for Uy, Initial residual = 0.0188531, Final residual = 5.94004e-07, No Iterations 14
DICPCG:  Solving for p, Initial residual = 0.0241229, Final residual = 0.0011902, No Iterations 3
time step continuity errors : sum local = 1.96031e-22, global = -2.32302e-24, cumulative = 3.81273e-23
DICPCG:  Solving for p, Initial residual = 0.0203944, Final residual = 8.71523e-07, No Iterations 84
time step continuity errors : sum local = 1.59815e-22, global = -8.24799e-25, cumulative = 3.73025e-23
ExecutionTime = 1.34 s  ClockTime = 2 s

Time = 0.065

Courant Number mean: 2.18746e-06 max: 0.000170846
smoothSolver:  Solving for Ux, Initial residual = 3.44448e-16, Final residual = 3.44448e-16, No Iterations 0
smoothSolver:  Solving for Uy, Initial residual = 0.0166795, Final residual = 5.41844e-07, No Iterations 14
DICPCG:  Solving for p, Initial residual = 0.0216249, Final residual = 0.00105053, No Iterations 6
time step continuity errors : sum local = 1.93965e-22, global = 1.07725e-24, cumulative = 3.83798e-23
DICPCG:  Solving for p, Initial residual = 0.0177719, Final residual = 7.54563e-07, No Iterations 85
time step continuity errors : sum local = 1.73995e-22, global = 8.8711e-24, cumulative = 4.72509e-23
ExecutionTime = 1.35 s  ClockTime = 2 s

Time = 0.066

Courant Number mean: 2.18746e-06 max: 0.000170846
smoothSolver:  Solving for Ux, Initial residual = 2.57227e-16, Final residual = 2.57227e-16, No Iterations 0
smoothSolver:  Solving for Uy, Initial residual = 0.0184427, Final residual = 5.79712e-07, No Iterations 14
DICPCG:  Solving for p, Initial residual = 0.0213083, Final residual = 0.000991057, No Iterations 5
time step continuity errors : sum local = 1.97116e-22, global = 2.39055e-24, cumulative = 4.96414e-23
DICPCG:  Solving for p, Initial residual = 0.018003, Final residual = 7.51244e-07, No Iterations 85
time step continuity errors : sum local = 1.5818e-22, global = 1.21201e-24, cumulative = 5.08534e-23
ExecutionTime = 1.37 s  ClockTime = 2 s

Time = 0.067

Courant Number mean: 2.18746e-06 max: 0.000170846
smoothSolver:  Solving for Ux, Initial residual = 2.00498e-16, Final residual = 2.00498e-16, No Iterations 0
smoothSolver:  Solving for Uy, Initial residual = 0.0184706, Final residual = 5.7196e-07, No Iterations 14
DICPCG:  Solving for p, Initial residual = 0.0208094, Final residual = 0.000904957, No Iterations 9
time step continuity errors : sum local = 2.00401e-22, global = 4.93138e-24, cumulative = 5.57848e-23
DICPCG:  Solving for p, Initial residual = 0.0168927, Final residual = 9.431e-07, No Iterations 84
time step continuity errors : sum local = 1.65053e-22, global = -4.47853e-24, cumulative = 5.13063e-23
ExecutionTime = 1.38 s  ClockTime = 2 s

Time = 0.068

Courant Number mean: 2.18746e-06 max: 0.000170846
smoothSolver:  Solving for Ux, Initial residual = 1.59423e-16, Final residual = 1.59423e-16, No Iterations 0
smoothSolver:  Solving for Uy, Initial residual = 0.0167652, Final residual = 5.51605e-07, No Iterations 14
DICPCG:  Solving for p, Initial residual = 0.0205814, Final residual = 0.00095734, No Iterations 9
time step continuity errors : sum local = 1.99023e-22, global = -3.35551e-24, cumulative = 4.79508e-23
DICPCG:  Solving for p, Initial residual = 0.0177491, Final residual = 8.77078e-07, No Iterations 84
time step continuity errors : sum local = 1.63638e-22, global = 1.08598e-23, cumulative = 5.88106e-23
ExecutionTime = 1.4 s  ClockTime = 2 s

Time = 0.069

Courant Number mean: 2.18746e-06 max: 0.000170846
smoothSolver:  Solving for Ux, Initial residual = 1.32068e-16, Final residual = 1.32068e-16, No Iterations 0
smoothSolver:  Solving for Uy, Initial residual = 0.016198, Final residual = 5.53474e-07, No Iterations 14
DICPCG:  Solving for p, Initial residual = 0.0194634, Final residual = 0.000759265, No Iterations 46
time step continuity errors : sum local = 2.03832e-22, global = -3.28133e-24, cumulative = 5.55292e-23
DICPCG:  Solving for p, Initial residual = 0.0165997, Final residual = 6.24958e-07, No Iterations 85
time step continuity errors : sum local = 1.67984e-22, global = 3.50785e-24, cumulative = 5.90371e-23
ExecutionTime = 1.42 s  ClockTime = 2 s

Time = 0.07

Courant Number mean: 2.18746e-06 max: 0.000170846
smoothSolver:  Solving for Ux, Initial residual = 1.11893e-16, Final residual = 1.11893e-16, No Iterations 0
smoothSolver:  Solving for Uy, Initial residual = 0.0177924, Final residual = 5.82765e-07, No Iterations 14
DICPCG:  Solving for p, Initial residual = 0.0217121, Final residual = 0.00108204, No Iterations 4
time step continuity errors : sum local = 2.03048e-22, global = -3.84271e-25, cumulative = 5.86528e-23
DICPCG:  Solving for p, Initial residual = 0.017274, Final residual = 7.5878e-07, No Iterations 79
time step continuity errors : sum local = 1.75962e-22, global = -2.97824e-24, cumulative = 5.56746e-23
ExecutionTime = 1.43 s  ClockTime = 2 s

Time = 0.071

Courant Number mean: 2.18746e-06 max: 0.000170846
smoothSolver:  Solving for Ux, Initial residual = 1.01381e-16, Final residual = 1.01381e-16, No Iterations 0
smoothSolver:  Solving for Uy, Initial residual = 0.015867, Final residual = 9.29767e-07, No Iterations 13
DICPCG:  Solving for p, Initial residual = 0.0184217, Final residual = 0.000865432, No Iterations 46
time step continuity errors : sum local = 2.07449e-22, global = 9.66099e-26, cumulative = 5.57712e-23
DICPCG:  Solving for p, Initial residual = 0.0150152, Final residual = 6.60836e-07, No Iterations 85
time step continuity errors : sum local = 1.61543e-22, global = 5.24476e-24, cumulative = 6.10159e-23
ExecutionTime = 1.45 s  ClockTime = 2 s

Time = 0.072

Courant Number mean: 2.18746e-06 max: 0.000170846
smoothSolver:  Solving for Ux, Initial residual = 9.72656e-17, Final residual = 9.72656e-17, No Iterations 0
smoothSolver:  Solving for Uy, Initial residual = 0.0146408, Final residual = 9.18973e-07, No Iterations 13
DICPCG:  Solving for p, Initial residual = 0.0167986, Final residual = 0.00080413, No Iterations 22
time step continuity errors : sum local = 2.12811e-22, global = 2.19816e-24, cumulative = 6.32141e-23
DICPCG:  Solving for p, Initial residual = 0.014561, Final residual = 8.30882e-07, No Iterations 80
time step continuity errors : sum local = 1.76671e-22, global = -5.32982e-24, cumulative = 5.78843e-23
ExecutionTime = 1.47 s  ClockTime = 2 s

Time = 0.073

Courant Number mean: 2.18746e-06 max: 0.000170846
smoothSolver:  Solving for Ux, Initial residual = 9.44793e-17, Final residual = 9.44793e-17, No Iterations 0
smoothSolver:  Solving for Uy, Initial residual = 0.0142852, Final residual = 8.30584e-07, No Iterations 13
DICPCG:  Solving for p, Initial residual = 0.0152488, Final residual = 0.000549144, No Iterations 48
time step continuity errors : sum local = 1.8293e-22, global = 7.05893e-24, cumulative = 6.49432e-23
DICPCG:  Solving for p, Initial residual = 0.0130478, Final residual = 8.18625e-07, No Iterations 85
time step continuity errors : sum local = 1.64138e-22, global = -1.52912e-25, cumulative = 6.47903e-23
ExecutionTime = 1.49 s  ClockTime = 2 s

Time = 0.074

Courant Number mean: 2.18746e-06 max: 0.000170846
smoothSolver:  Solving for Ux, Initial residual = 9.04087e-17, Final residual = 9.04087e-17, No Iterations 0
smoothSolver:  Solving for Uy, Initial residual = 0.0117752, Final residual = 7.78567e-07, No Iterations 13
DICPCG:  Solving for p, Initial residual = 0.0146823, Final residual = 0.000722269, No Iterations 9
time step continuity errors : sum local = 1.96685e-22, global = 1.76519e-24, cumulative = 6.65555e-23
DICPCG:  Solving for p, Initial residual = 0.012615, Final residual = 7.60176e-07, No Iterations 79
time step continuity errors : sum local = 1.68079e-22, global = -5.51645e-24, cumulative = 6.1039e-23
ExecutionTime = 1.5 s  ClockTime = 2 s

Time = 0.075

Courant Number mean: 2.18746e-06 max: 0.000170846
smoothSolver:  Solving for Ux, Initial residual = 8.90177e-17, Final residual = 8.90177e-17, No Iterations 0
smoothSolver:  Solving for Uy, Initial residual = 0.0115834, Final residual = 7.93441e-07, No Iterations 13
DICPCG:  Solving for p, Initial residual = 0.0141656, Final residual = 0.00069587, No Iterations 46
time step continuity errors : sum local = 2.0303e-22, global = -6.7884e-25, cumulative = 6.03602e-23
DICPCG:  Solving for p, Initial residual = 0.012299, Final residual = 9.76328e-07, No Iterations 84
time step continuity errors : sum local = 1.58015e-22, global = -5.05968e-24, cumulative = 5.53005e-23
ExecutionTime = 1.52 s  ClockTime = 2 s

Time = 0.076

Courant Number mean: 2.18746e-06 max: 0.000170846
smoothSolver:  Solving for Ux, Initial residual = 8.92048e-17, Final residual = 8.92048e-17, No Iterations 0
smoothSolver:  Solving for Uy, Initial residual = 0.0109511, Final residual = 7.57443e-07, No Iterations 13
DICPCG:  Solving for p, Initial residual = 0.0140949, Final residual = 0.000665313, No Iterations 8
time step continuity errors : sum local = 1.89121e-22, global = 5.58328e-24, cumulative = 6.08838e-23
DICPCG:  Solving for p, Initial residual = 0.0125136, Final residual = 7.79225e-07, No Iterations 85
time step continuity errors : sum local = 1.63576e-22, global = -8.65352e-25, cumulative = 6.00184e-23
ExecutionTime = 1.54 s  ClockTime = 2 s

Time = 0.077

Courant Number mean: 2.18746e-06 max: 0.000170846
smoothSolver:  Solving for Ux, Initial residual = 8.80018e-17, Final residual = 8.80018e-17, No Iterations 0
smoothSolver:  Solving for Uy, Initial residual = 0.0113589, Final residual = 7.37458e-07, No Iterations 13
DICPCG:  Solving for p, Initial residual = 0.0133224, Final residual = 0.00066228, No Iterations 10
time step continuity errors : sum local = 1.87969e-22, global = -1.71092e-25, cumulative = 5.98474e-23
DICPCG:  Solving for p, Initial residual = 0.0115697, Final residual = 8.90849e-07, No Iterations 84
time step continuity errors : sum local = 1.56564e-22, global = -5.76273e-24, cumulative = 5.40846e-23
ExecutionTime = 1.55 s  ClockTime = 2 s

Time = 0.078

Courant Number mean: 2.18746e-06 max: 0.000170846
smoothSolver:  Solving for Ux, Initial residual = 8.76951e-17, Final residual = 8.76951e-17, No Iterations 0
smoothSolver:  Solving for Uy, Initial residual = 0.0112881, Final residual = 8.05298e-07, No Iterations 13
DICPCG:  Solving for p, Initial residual = 0.0137949, Final residual = 0.000551582, No Iterations 20
time step continuity errors : sum local = 1.90914e-22, global = 1.07706e-24, cumulative = 5.51617e-23
DICPCG:  Solving for p, Initial residual = 0.0116397, Final residual = 8.06187e-07, No Iterations 79
time step continuity errors : sum local = 1.71495e-22, global = -1.28775e-25, cumulative = 5.50329e-23
ExecutionTime = 1.57 s  ClockTime = 2 s

Time = 0.079

Courant Number mean: 2.18746e-06 max: 0.000170846
smoothSolver:  Solving for Ux, Initial residual = 8.65496e-17, Final residual = 8.65496e-17, No Iterations 0
smoothSolver:  Solving for Uy, Initial residual = 0.00957697, Final residual = 6.60603e-07, No Iterations 13
DICPCG:  Solving for p, Initial residual = 0.0120734, Final residual = 0.00058866, No Iterations 46
time step continuity errors : sum local = 1.96117e-22, global = 5.45558e-24, cumulative = 6.04885e-23
DICPCG:  Solving for p, Initial residual = 0.0109236, Final residual = 8.89301e-07, No Iterations 84
time step continuity errors : sum local = 1.7164e-22, global = -1.18245e-24, cumulative = 5.9306e-23
ExecutionTime = 1.59 s  ClockTime = 2 s

Time = 0.08

Courant Number mean: 2.18746e-06 max: 0.000170846
smoothSolver:  Solving for Ux, Initial residual = 8.77904e-17, Final residual = 8.77904e-17, No Iterations 0
smoothSolver:  Solving for Uy, Initial residual = 0.0107413, Final residual = 7.78072e-07, No Iterations 13
DICPCG:  Solving for p, Initial residual = 0.0141146, Final residual = 0.000693218, No Iterations 6
time step continuity errors : sum local = 1.85598e-22, global = 8.15827e-25, cumulative = 6.01219e-23
DICPCG:  Solving for p, Initial residual = 0.012247, Final residual = 6.81726e-07, No Iterations 80
time step continuity errors : sum local = 1.64403e-22, global = 1.19588e-24, cumulative = 6.13177e-23
ExecutionTime = 1.6 s  ClockTime = 2 s

Time = 0.081

Courant Number mean: 2.18746e-06 max: 0.000170846
smoothSolver:  Solving for Ux, Initial residual = 8.9008e-17, Final residual = 8.9008e-17, No Iterations 0
smoothSolver:  Solving for Uy, Initial residual = 0.00968294, Final residual = 7.10555e-07, No Iterations 13
DICPCG:  Solving for p, Initial residual = 0.0123048, Final residual = 0.000570541, No Iterations 20
time step continuity errors : sum local = 1.81488e-22, global = 2.28385e-24, cumulative = 6.36016e-23
DICPCG:  Solving for p, Initial residual = 0.0109121, Final residual = 6.16719e-07, No Iterations 85
time step continuity errors : sum local = 1.68034e-22, global = -4.77417e-24, cumulative = 5.88274e-23
ExecutionTime = 1.62 s  ClockTime = 2 s

Time = 0.082

Courant Number mean: 2.18746e-06 max: 0.000170846
smoothSolver:  Solving for Ux, Initial residual = 8.65373e-17, Final residual = 8.65373e-17, No Iterations 0
smoothSolver:  Solving for Uy, Initial residual = 0.0110614, Final residual = 7.34221e-07, No Iterations 13
DICPCG:  Solving for p, Initial residual = 0.0130949, Final residual = 0.0006275, No Iterations 47
time step continuity errors : sum local = 1.88559e-22, global = -7.15355e-24, cumulative = 5.16739e-23
DICPCG:  Solving for p, Initial residual = 0.0118993, Final residual = 6.67972e-07, No Iterations 85
time step continuity errors : sum local = 1.61576e-22, global = -3.0614e-24, cumulative = 4.86125e-23
ExecutionTime = 1.64 s  ClockTime = 2 s

Time = 0.083

Courant Number mean: 2.18746e-06 max: 0.000170846
smoothSolver:  Solving for Ux, Initial residual = 8.70708e-17, Final residual = 8.70708e-17, No Iterations 0
smoothSolver:  Solving for Uy, Initial residual = 0.00984669, Final residual = 6.39554e-07, No Iterations 13
DICPCG:  Solving for p, Initial residual = 0.0122196, Final residual = 0.000585701, No Iterations 11
time step continuity errors : sum local = 1.82797e-22, global = -3.80446e-24, cumulative = 4.4808e-23
DICPCG:  Solving for p, Initial residual = 0.0106047, Final residual = 9.75131e-07, No Iterations 79
time step continuity errors : sum local = 1.68207e-22, global = -3.76866e-24, cumulative = 4.10394e-23
ExecutionTime = 1.66 s  ClockTime = 2 s

Time = 0.084

Courant Number mean: 2.18746e-06 max: 0.000170846
smoothSolver:  Solving for Ux, Initial residual = 8.8995e-17, Final residual = 8.8995e-17, No Iterations 0
smoothSolver:  Solving for Uy, Initial residual = 0.0113185, Final residual = 7.1722e-07, No Iterations 13
DICPCG:  Solving for p, Initial residual = 0.0125699, Final residual = 0.000526804, No Iterations 48
time step continuity errors : sum local = 1.84901e-22, global = 4.05512e-24, cumulative = 4.50945e-23
DICPCG:  Solving for p, Initial residual = 0.010606, Final residual = 9.76232e-07, No Iterations 84
time step continuity errors : sum local = 1.60615e-22, global = -3.15441e-24, cumulative = 4.19401e-23
ExecutionTime = 1.66 s  ClockTime = 2 s

Time = 0.085

Courant Number mean: 2.18746e-06 max: 0.000170846
smoothSolver:  Solving for Ux, Initial residual = 8.79585e-17, Final residual = 8.79585e-17, No Iterations 0
smoothSolver:  Solving for Uy, Initial residual = 0.0116312, Final residual = 8.40479e-07, No Iterations 13
DICPCG:  Solving for p, Initial residual = 0.0136931, Final residual = 0.000657658, No Iterations 9
time step continuity errors : sum local = 1.92082e-22, global = 8.72128e-24, cumulative = 5.06613e-23
DICPCG:  Solving for p, Initial residual = 0.0120358, Final residual = 7.11465e-07, No Iterations 85
time step continuity errors : sum local = 1.66097e-22, global = -8.04816e-24, cumulative = 4.26132e-23
ExecutionTime = 1.68 s  ClockTime = 2 s

Time = 0.086

Courant Number mean: 2.18746e-06 max: 0.000170846
smoothSolver:  Solving for Ux, Initial residual = 8.91029e-17, Final residual = 8.91029e-17, No Iterations 0
smoothSolver:  Solving for Uy, Initial residual = 0.0105415, Final residual = 7.20484e-07, No Iterations 13
DICPCG:  Solving for p, Initial residual = 0.013171, Final residual = 0.000593305, No Iterations 21
time step continuity errors : sum local = 1.89562e-22, global = -3.39626e-24, cumulative = 3.92169e-23
DICPCG:  Solving for p, Initial residual = 0.0111282, Final residual = 9.54356e-07, No Iterations 80
time step continuity errors : sum local = 1.74067e-22, global = -5.9043e-24, cumulative = 3.33126e-23
ExecutionTime = 1.7 s  ClockTime = 2 s

Time = 0.087

Courant Number mean: 2.18746e-06 max: 0.000170846
smoothSolver:  Solving for Ux, Initial residual = 8.85658e-17, Final residual = 8.85658e-17, No Iterations 0
smoothSolver:  Solving for Uy, Initial residual = 0.011897, Final residual = 7.10835e-07, No Iterations 13
DICPCG:  Solving for p, Initial residual = 0.0124994, Final residual = 0.000601834, No Iterations 47
time step continuity errors : sum local = 1.77966e-22, global = 1.34094e-24, cumulative = 3.46536e-23
DICPCG:  Solving for p, Initial residual = 0.0110429, Final residual = 7.283e-07, No Iterations 79
time step continuity errors : sum local = 1.69741e-22, global = -8.63619e-24, cumulative = 2.60174e-23
ExecutionTime = 1.73 s  ClockTime = 2 s

Time = 0.088

Courant Number mean: 2.18746e-06 max: 0.000170846
smoothSolver:  Solving for Ux, Initial residual = 8.9034e-17, Final residual = 8.9034e-17, No Iterations 0
smoothSolver:  Solving for Uy, Initial residual = 0.0117798, Final residual = 7.5655e-07, No Iterations 13
DICPCG:  Solving for p, Initial residual = 0.0136674, Final residual = 0.000636844, No Iterations 42
time step continuity errors : sum local = 1.90066e-22, global = 1.02295e-24, cumulative = 2.70403e-23
DICPCG:  Solving for p, Initial residual = 0.0119808, Final residual = 7.41072e-07, No Iterations 85
time step continuity errors : sum local = 1.66404e-22, global = -2.97221e-24, cumulative = 2.40681e-23
ExecutionTime = 1.74 s  ClockTime = 2 s

Time = 0.089

Courant Number mean: 2.18746e-06 max: 0.000170846
smoothSolver:  Solving for Ux, Initial residual = 8.70216e-17, Final residual = 8.70216e-17, No Iterations 0
smoothSolver:  Solving for Uy, Initial residual = 0.0103108, Final residual = 7.19713e-07, No Iterations 13
DICPCG:  Solving for p, Initial residual = 0.0123674, Final residual = 0.000552763, No Iterations 13
time step continuity errors : sum local = 1.79751e-22, global = -3.086e-24, cumulative = 2.09821e-23
DICPCG:  Solving for p, Initial residual = 0.0106287, Final residual = 9.28518e-07, No Iterations 84
time step continuity errors : sum local = 1.64341e-22, global = -3.39331e-24, cumulative = 1.75888e-23
ExecutionTime = 1.76 s  ClockTime = 2 s

Time = 0.09

Courant Number mean: 2.18746e-06 max: 0.000170846
smoothSolver:  Solving for Ux, Initial residual = 8.71568e-17, Final residual = 8.71568e-17, No Iterations 0
smoothSolver:  Solving for Uy, Initial residual = 0.0105927, Final residual = 7.80172e-07, No Iterations 13
DICPCG:  Solving for p, Initial residual = 0.0136047, Final residual = 0.000622393, No Iterations 46
time step continuity errors : sum local = 1.95955e-22, global = -2.45112e-24, cumulative = 1.51377e-23
DICPCG:  Solving for p, Initial residual = 0.0121603, Final residual = 9.35374e-07, No Iterations 84
time step continuity errors : sum local = 1.69248e-22, global = -6.49115e-24, cumulative = 8.64653e-24
ExecutionTime = 1.78 s  ClockTime = 2 s

Time = 0.091

Courant Number mean: 2.18746e-06 max: 0.000170846
smoothSolver:  Solving for Ux, Initial residual = 9.05187e-17, Final residual = 9.05187e-17, No Iterations 0
smoothSolver:  Solving for Uy, Initial residual = 0.0148776, Final residual = 9.00575e-07, No Iterations 13
DICPCG:  Solving for p, Initial residual = 0.014168, Final residual = 0.000510903, No Iterations 48
time step continuity errors : sum local = 1.98968e-22, global = 4.9383e-24, cumulative = 1.35848e-23
DICPCG:  Solving for p, Initial residual = 0.0127662, Final residual = 6.69211e-07, No Iterations 85
time step continuity errors : sum local = 1.72818e-22, global = -3.23783e-24, cumulative = 1.0347e-23
ExecutionTime = 1.8 s  ClockTime = 2 s

Time = 0.092

Courant Number mean: 2.18746e-06 max: 0.000170846
smoothSolver:  Solving for Ux, Initial residual = 8.83521e-17, Final residual = 8.83521e-17, No Iterations 0
smoothSolver:  Solving for Uy, Initial residual = 0.012209, Final residual = 8.56587e-07, No Iterations 13
DICPCG:  Solving for p, Initial residual = 0.0135407, Final residual = 0.000584561, No Iterations 26
time step continuity errors : sum local = 1.89892e-22, global = -7.39533e-24, cumulative = 2.95168e-24
DICPCG:  Solving for p, Initial residual = 0.0118453, Final residual = 6.12583e-07, No Iterations 85
time step continuity errors : sum local = 1.57395e-22, global = 6.27571e-24, cumulative = 9.22739e-24
ExecutionTime = 1.81 s  ClockTime = 2 s

Time = 0.093

Courant Number mean: 2.18746e-06 max: 0.000170846
smoothSolver:  Solving for Ux, Initial residual = 8.91539e-17, Final residual = 8.91539e-17, No Iterations 0
smoothSolver:  Solving for Uy, Initial residual = 0.0105087, Final residual = 6.59794e-07, No Iterations 13
DICPCG:  Solving for p, Initial residual = 0.012365, Final residual = 0.00060564, No Iterations 16
time step continuity errors : sum local = 1.90362e-22, global = -4.93828e-25, cumulative = 8.73356e-24
DICPCG:  Solving for p, Initial residual = 0.0111583, Final residual = 6.33221e-07, No Iterations 85
time step continuity errors : sum local = 1.67357e-22, global = -8.091e-25, cumulative = 7.92446e-24
ExecutionTime = 1.82 s  ClockTime = 2 s

Time = 0.094

Courant Number mean: 2.18746e-06 max: 0.000170846
smoothSolver:  Solving for Ux, Initial residual = 8.86596e-17, Final residual = 8.86596e-17, No Iterations 0
smoothSolver:  Solving for Uy, Initial residual = 0.0117243, Final residual = 7.86114e-07, No Iterations 13
DICPCG:  Solving for p, Initial residual = 0.0140605, Final residual = 0.000623252, No Iterations 10
time step continuity errors : sum local = 1.89178e-22, global = -7.3363e-24, cumulative = 5.88161e-25
DICPCG:  Solving for p, Initial residual = 0.0121469, Final residual = 6.75624e-07, No Iterations 85
time step continuity errors : sum local = 1.64911e-22, global = -2.79984e-25, cumulative = 3.08177e-25
ExecutionTime = 1.84 s  ClockTime = 2 s

Time = 0.095

Courant Number mean: 2.18746e-06 max: 0.000170846
smoothSolver:  Solving for Ux, Initial residual = 8.79894e-17, Final residual = 8.79894e-17, No Iterations 0
smoothSolver:  Solving for Uy, Initial residual = 0.0107637, Final residual = 7.58779e-07, No Iterations 13
DICPCG:  Solving for p, Initial residual = 0.0140481, Final residual = 0.000665951, No Iterations 23
time step continuity errors : sum local = 1.78816e-22, global = 4.78209e-24, cumulative = 5.09027e-24
DICPCG:  Solving for p, Initial residual = 0.0119213, Final residual = 9.58397e-07, No Iterations 84
time step continuity errors : sum local = 1.67343e-22, global = -2.06246e-24, cumulative = 3.02781e-24
ExecutionTime = 1.87 s  ClockTime = 2 s

Time = 0.096

Courant Number mean: 2.18746e-06 max: 0.000170846
smoothSolver:  Solving for Ux, Initial residual = 8.79332e-17, Final residual = 8.79332e-17, No Iterations 0
smoothSolver:  Solving for Uy, Initial residual = 0.00950606, Final residual = 6.61259e-07, No Iterations 13
DICPCG:  Solving for p, Initial residual = 0.0119548, Final residual = 0.000581593, No Iterations 8
time step continuity errors : sum local = 1.83262e-22, global = -3.3625e-26, cumulative = 2.99418e-24
DICPCG:  Solving for p, Initial residual = 0.0105474, Final residual = 9.89635e-07, No Iterations 84
time step continuity errors : sum local = 1.6565e-22, global = -4.29518e-24, cumulative = -1.30099e-24
ExecutionTime = 1.88 s  ClockTime = 2 s

Time = 0.097

Courant Number mean: 2.18746e-06 max: 0.000170846
smoothSolver:  Solving for Ux, Initial residual = 8.93107e-17, Final residual = 8.93107e-17, No Iterations 0
smoothSolver:  Solving for Uy, Initial residual = 0.0104446, Final residual = 6.7365e-07, No Iterations 13
DICPCG:  Solving for p, Initial residual = 0.0125334, Final residual = 0.000530112, No Iterations 47
time step continuity errors : sum local = 1.81438e-22, global = -1.51084e-24, cumulative = -2.81183e-24
DICPCG:  Solving for p, Initial residual = 0.0110863, Final residual = 8.73644e-07, No Iterations 80
time step continuity errors : sum local = 1.62804e-22, global = -2.48398e-24, cumulative = -5.29581e-24
ExecutionTime = 1.9 s  ClockTime = 2 s

Time = 0.098

Courant Number mean: 2.18746e-06 max: 0.000170846
smoothSolver:  Solving for Ux, Initial residual = 8.92533e-17, Final residual = 8.92533e-17, No Iterations 0
smoothSolver:  Solving for Uy, Initial residual = 0.00991494, Final residual = 6.7292e-07, No Iterations 13
DICPCG:  Solving for p, Initial residual = 0.0126628, Final residual = 0.000631132, No Iterations 20
time step continuity errors : sum local = 1.93015e-22, global = -5.48116e-24, cumulative = -1.0777e-23
DICPCG:  Solving for p, Initial residual = 0.0111736, Final residual = 8.36956e-07, No Iterations 82
time step continuity errors : sum local = 1.73517e-22, global = 9.7187e-24, cumulative = -1.05827e-24
ExecutionTime = 1.92 s  ClockTime = 2 s

Time = 0.099

Courant Number mean: 2.18746e-06 max: 0.000170846
smoothSolver:  Solving for Ux, Initial residual = 8.89412e-17, Final residual = 8.89412e-17, No Iterations 0
smoothSolver:  Solving for Uy, Initial residual = 0.0116208, Final residual = 7.35242e-07, No Iterations 13
DICPCG:  Solving for p, Initial residual = 0.0134843, Final residual = 0.000560391, No Iterations 47
time step continuity errors : sum local = 1.90186e-22, global = -3.91274e-24, cumulative = -4.97101e-24
DICPCG:  Solving for p, Initial residual = 0.0113014, Final residual = 7.62113e-07, No Iterations 84
time step continuity errors : sum local = 1.72875e-22, global = -6.87512e-24, cumulative = -1.18461e-23
ExecutionTime = 1.94 s  ClockTime = 2 s

Time = 0.1

Courant Number mean: 2.18746e-06 max: 0.000170846
smoothSolver:  Solving for Ux, Initial residual = 8.92545e-17, Final residual = 8.92545e-17, No Iterations 0
smoothSolver:  Solving for Uy, Initial residual = 0.00970492, Final residual = 6.61411e-07, No Iterations 13
DICPCG:  Solving for p, Initial residual = 0.0119773, Final residual = 0.000585111, No Iterations 20
time step continuity errors : sum local = 1.77181e-22, global = -8.00116e-24, cumulative = -1.98473e-23
DICPCG:  Solving for p, Initial residual = 0.0107034, Final residual = 9.0757e-07, No Iterations 84
time step continuity errors : sum local = 1.57561e-22, global = 5.76681e-25, cumulative = -1.92706e-23
ExecutionTime = 1.97 s  ClockTime = 2 s

End

